@<TRIPOS>MOLECULE
COV
   76    79     1     0     0
SMALL
bcc


@<TRIPOS>ATOM
      1 C1          0.6200   -0.6720   -0.4360 c3        1 COV      0.186300
      2 C20        -7.0670   -0.0030    5.5290 c3        1 COV      0.164800
      3 C2          2.1370   -0.7300   -0.2890 c3        1 COV     -0.146400
      4 C25       -10.4740    2.6150    3.1240 c3        1 COV      0.149800
      5 C26       -11.4800    2.4240    1.9900 c3        1 COV     -0.124100
      6 C27       -11.1630    3.2650    4.3160 c3        1 COV     -0.124100
      7 C3          2.5540   -0.4730    1.1540 c3        1 COV      0.146100
      8 C4          1.9210   -1.5000    2.0900 c3        1 COV     -0.035200
      9 C5          0.4350   -1.5050    1.9460 ce        1 COV     -0.076200
     10 C6         -0.3500   -1.4870    3.0430 cf        1 COV     -0.106000
     11 C7         -1.7950   -1.4560    3.0280 cf        1 COV     -0.150000
     12 C8         -2.5980   -1.8800    4.0190 c2        1 COV     -0.079400
     13 C9         -2.1310   -2.5530    5.2690 c3        1 COV     -0.043200
     14 C10        -0.0720   -1.5520    0.5760 ce        1 COV     -0.068200
     15 C11        -2.8010   -2.0340    6.5300 c3        1 COV     -0.072400
     16 C12        -4.3060   -1.8660    6.4120 c3        1 COV     -0.068400
     17 C13        -4.6630   -1.0530    5.1770 c3        1 COV     -0.033000
     18 C14        -4.0810   -1.8140    3.9520 c3        1 COV     -0.036500
     19 C15        -4.7850   -1.1800    2.7610 c3        1 COV     -0.072400
     20 C16        -6.1810   -0.8360    3.2840 c3        1 COV     -0.077400
     21 C17        -6.1650   -1.0170    4.8150 c3        1 COV     -0.054700
     22 C18        -4.0910    0.3500    5.2720 c3        1 COV     -0.080100
     23 C19        -1.0850   -2.3410    0.1980 c2        1 COV     -0.193000
     24 O3          3.9630   -0.6060    1.3070 oh        1 COV     -0.599800
     25 C21        -6.9880   -0.1410    7.0450 c3        1 COV     -0.102100
     26 C22        -8.5330   -0.1710    5.0680 c3        1 COV     -0.105400
     27 C23        -9.0330    1.2370    4.7480 c3        1 COV     -0.086700
     28 C24        -9.8500    1.2580    3.4730 c3        1 COV     -0.059400
     29 C28        -7.7650    2.0890    4.6670 c3        1 COV      0.130400
     30 O1          0.1270    0.6530   -0.2530 oh        1 COV     -0.587800
     31 O21        -6.6670    1.3400    5.1930 os        1 COV     -0.420600
     32 O25        -9.3990    3.4410    2.6690 oh        1 COV     -0.599800
     33 H1          0.3480   -1.0080   -1.4800 h1        1 COV      0.033700
     34 H2          2.5020   -1.7400   -0.6070 hc        1 COV      0.052200
     35 H2A         2.6110    0.0320   -0.9600 hc        1 COV      0.052200
     36 H26       -12.3290    1.7880    2.3330 hc        1 COV      0.043533
     37 H26A      -10.9840    1.9340    1.1190 hc        1 COV      0.043533
     38 H26B      -11.8810    3.4120    1.6610 hc        1 COV      0.043533
     39 H27       -10.4000    3.6210    5.0510 hc        1 COV      0.043533
     40 H27A      -11.7670    4.1420    3.9820 hc        1 COV      0.043533
     41 H27B      -11.8390    2.5320    4.8160 hc        1 COV      0.043533
     42 H3          2.2370    0.5660    1.4550 h1        1 COV      0.048700
     43 H4          2.2270   -1.2660    3.1430 hc        1 COV      0.061200
     44 H4A         2.3250   -2.5190    1.8420 hc        1 COV      0.061200
     45 H6          0.1290   -1.4580    4.0390 ha        1 COV      0.124000
     46 H7         -2.2440   -1.0260    2.1120 ha        1 COV      0.138000
     47 H9         -2.3490   -3.6520    5.1640 hc        1 COV      0.045700
     48 H9A        -1.0200   -2.4510    5.3890 hc        1 COV      0.045700
     49 H11        -2.3450   -1.0460    6.8050 hc        1 COV      0.040700
     50 H11A       -2.5790   -2.7450    7.3700 hc        1 COV      0.040700
     51 H12        -4.7960   -2.8730    6.3530 hc        1 COV      0.039200
     52 H12A       -4.6890   -1.3600    7.3360 hc        1 COV      0.039200
     53 H14        -4.4440   -2.8850    4.0160 hc        1 COV      0.048700
     54 H15        -4.8330   -1.8810    1.8940 hc        1 COV      0.046200
     55 H15A       -4.2550   -0.2530    2.4270 hc        1 COV      0.046200
     56 H16        -6.4470    0.2210    3.0270 hc        1 COV      0.045700
     57 H16A       -6.9470   -1.5080    2.8240 hc        1 COV      0.045700
     58 H17        -6.5930   -2.0300    5.0640 hc        1 COV      0.042700
     59 H18        -2.9750    0.3250    5.2410 hc        1 COV      0.043033
     60 H18A       -4.4180    0.8400    6.2200 hc        1 COV      0.043033
     61 H18B       -4.4570    0.9730    4.4190 hc        1 COV      0.043033
     62 H19        -1.5950   -3.0130    0.9010 ha        1 COV      0.120000
     63 H19A       -1.4600   -2.3630   -0.8340 ha        1 COV      0.120000
     64 HO3         4.3660    0.0550    0.7340 ho        1 COV      0.398000
     65 H21        -7.8210    0.4280    7.5240 hc        1 COV      0.042367
     66 H21A       -6.0240    0.2790    7.4200 hc        1 COV      0.042367
     67 H21B       -7.0620   -1.2140    7.3360 hc        1 COV      0.042367
     68 H22        -8.5910   -0.8290    4.1650 hc        1 COV      0.053200
     69 H22A       -9.1480   -0.6440    5.8710 hc        1 COV      0.053200
     70 H23        -9.6690    1.6020    5.5990 hc        1 COV      0.053700
     71 H24       -10.6850    0.5150    3.5690 hc        1 COV      0.053200
     72 H24A       -9.2010    0.9450    2.6120 hc        1 COV      0.053200
     73 H28        -7.8480    3.0190    5.2850 h1        1 COV      0.055200
     74 H28A       -7.5090    2.3630    3.6100 h1        1 COV      0.055200
     75 HO1         0.6240    1.2170   -0.8580 ho        1 COV      0.395000
     76 HO25       -9.7820    4.2950    2.4410 ho        1 COV      0.399000
@<TRIPOS>BOND
     1    1    3 1   
     2    1   14 1   
     3    1   30 1   
     4    1   33 1   
     5    2   21 1   
     6    2   25 1   
     7    2   26 1   
     8    2   31 1   
     9    3    7 1   
    10    3   34 1   
    11    3   35 1   
    12    4    5 1   
    13    4    6 1   
    14    4   28 1   
    15    4   32 1   
    16    5   36 1   
    17    5   37 1   
    18    5   38 1   
    19    6   39 1   
    20    6   40 1   
    21    6   41 1   
    22    7    8 1   
    23    7   24 1   
    24    7   42 1   
    25    8    9 1   
    26    8   43 1   
    27    8   44 1   
    28    9   10 2   
    29    9   14 1   
    30   10   11 1   
    31   10   45 1   
    32   11   12 2   
    33   11   46 1   
    34   12   13 1   
    35   12   18 1   
    36   13   15 1   
    37   13   47 1   
    38   13   48 1   
    39   14   23 2   
    40   15   16 1   
    41   15   49 1   
    42   15   50 1   
    43   16   17 1   
    44   16   51 1   
    45   16   52 1   
    46   17   18 1   
    47   17   21 1   
    48   17   22 1   
    49   18   19 1   
    50   18   53 1   
    51   19   20 1   
    52   19   54 1   
    53   19   55 1   
    54   20   21 1   
    55   20   56 1   
    56   20   57 1   
    57   21   58 1   
    58   22   59 1   
    59   22   60 1   
    60   22   61 1   
    61   23   62 1   
    62   23   63 1   
    63   24   64 1   
    64   25   65 1   
    65   25   66 1   
    66   25   67 1   
    67   26   27 1   
    68   26   68 1   
    69   26   69 1   
    70   27   28 1   
    71   27   29 1   
    72   27   70 1   
    73   28   71 1   
    74   28   72 1   
    75   29   31 1   
    76   29   73 1   
    77   29   74 1   
    78   30   75 1   
    79   32   76 1   
@<TRIPOS>SUBSTRUCTURE
     1 COV         1 TEMP              0 ****  ****    0 ROOT
