@<TRIPOS>MOLECULE
molecule
   76    79     1     0     0
SMALL
bcc


@<TRIPOS>ATOM
      1 C1           0.0000     0.0000     0.0000 c3         1 COV       0.189300
      2 C20         -6.8180    -0.1280     5.2450 c3         1 COV       0.149800
      3 C2           1.5320     0.0000     0.0000 c3         1 COV      -0.112400
      4 C25        -10.0460     2.7600     3.0150 c3         1 COV       0.145800
      5 C26        -11.3260     2.8020     2.1790 c3         1 COV      -0.120600
      6 C27        -10.2090     3.6580     4.2420 c3         1 COV      -0.120600
      7 C3           2.0500     0.0000     1.4390 c3         1 COV       0.152100
      8 C4           1.6780    -1.3190     2.1250 c3         1 COV      -0.039200
      9 C5           0.1720    -1.4780     2.0690 ce         1 COV      -0.085200
     10 C6          -0.5410    -1.8430     3.1550 cf         1 COV      -0.115000
     11 C7          -1.9960    -1.9850     3.0620 cf         1 COV      -0.160000
     12 C8          -2.7010    -2.3450     4.1350 c2         1 COV      -0.090400
     13 C9          -2.0500    -2.6200     5.4830 c3         1 COV      -0.044200
     14 C10         -0.4780    -1.2150     0.7680 ce         1 COV      -0.077200
     15 C11         -2.7600    -1.8490     6.5930 c3         1 COV      -0.078400
     16 C12         -4.2860    -2.0260     6.5250 c3         1 COV      -0.067400
     17 C13         -4.7420    -1.5270     5.1730 c3         1 COV      -0.058000
     18 C14         -4.1910    -2.5020     4.1020 c3         1 COV      -0.034500
     19 C15         -4.9080    -1.9970     2.8470 c3         1 COV      -0.074400
     20 C16         -6.3500    -1.7240     3.3610 c3         1 COV      -0.079400
     21 C17         -6.2350    -1.4950     4.8810 c3         1 COV      -0.061700
     22 C18         -4.1610    -0.1330     4.9260 c3         1 COV      -0.096100
     23 C19         -1.4400    -2.0090     0.2940 c2         1 COV      -0.207000
     24 O3           3.4710     0.1480     1.4330 oh         1 COV      -0.611800
     25 C21         -6.5410     0.1780     6.7190 c3         1 COV      -0.102100
     26 C22         -8.3390    -0.1230     4.9860 c3         1 COV      -0.106400
     27 C23         -8.5690     1.2990     4.4040 c3         1 COV      -0.104700
     28 C24         -9.7780     1.3220     3.4670 c3         1 COV      -0.057400
     29 C28         -7.2510     1.5130     3.6210 c3         1 COV       0.127400
     30 O1          -0.4820     1.1890     0.6310 oh         1 COV      -0.596800
     31 O21         -6.2330     0.8860     4.4200 os         1 COV      -0.405600
     32 O25         -8.9470     3.2230     2.2280 oh         1 COV      -0.605800
     33 H1          -0.3630    -0.0500    -1.0200 h1         1 COV       0.035700
     34 H2           1.8910     0.8860    -0.5100 hc         1 COV       0.054700
     35 H2A          1.8910    -0.8860    -0.5100 hc         1 COV       0.054700
     36 H26        -11.5190     3.8200     1.8650 hc         1 COV       0.043033
     37 H26A       -12.1580     2.4440     2.7740 hc         1 COV       0.043033
     38 H26B       -11.2090     2.1710     1.3060 hc         1 COV       0.043033
     39 H27        -10.7080     3.1060     5.0300 hc         1 COV       0.043033
     40 H27A       -10.8010     4.5260     3.9790 hc         1 COV       0.043033
     41 H27B        -9.2330     3.9780     4.5880 hc         1 COV       0.043033
     42 H3           1.6000     0.8230     1.9810 h1         1 COV       0.053700
     43 H4           2.0030    -1.2970     3.1580 hc         1 COV       0.057200
     44 H4A          2.1510    -2.1450     1.6060 hc         1 COV       0.057200
     45 H6          -0.0380    -2.0300     4.0960 ha         1 COV       0.133000
     46 H7          -2.4990    -1.7990     2.1210 ha         1 COV       0.147000
     47 H9          -2.1050    -3.6810     5.6950 hc         1 COV       0.047200
     48 H9A         -1.0120    -2.3120     5.4450 hc         1 COV       0.047200
     49 H11         -2.5230    -0.7960     6.4980 hc         1 COV       0.043700
     50 H11A        -2.4070    -2.2100     7.5520 hc         1 COV       0.043700
     51 H12         -4.7570    -1.4450     7.3080 hc         1 COV       0.041700
     52 H12A        -4.5390    -3.0730     6.6330 hc         1 COV       0.041700
     53 H14         -4.4800    -3.5220     4.3270 hc         1 COV       0.061700
     54 H15         -4.9140    -2.7590     2.0780 hc         1 COV       0.049700
     55 H15A        -4.4510    -1.0830     2.4890 hc         1 COV       0.049700
     56 H16         -6.7530    -0.8400     2.8820 hc         1 COV       0.044200
     57 H16A        -6.9820    -2.5820     3.1630 hc         1 COV       0.044200
     58 H17         -6.7420    -2.2860     5.4210 hc         1 COV       0.054700
     59 H18         -4.5360     0.2530     3.9860 hc         1 COV       0.051033
     60 H18A        -3.0800    -0.1940     4.8860 hc         1 COV       0.051033
     61 H18B        -4.4550     0.5290     5.7310 hc         1 COV       0.051033
     62 H19         -1.8990    -1.7910    -0.6620 ha         1 COV       0.122000
     63 H19A        -1.7610    -2.8710     0.8660 ha         1 COV       0.122000
     64 HO3          3.7020     0.9780     1.8160 ho         1 COV       0.401000
     65 H21         -7.3370     0.8110     7.0900 hc         1 COV       0.044033
     66 H21A        -6.5040    -0.7350     7.3010 hc         1 COV       0.044033
     67 H21B        -5.5950     0.7000     6.8040 hc         1 COV       0.044033
     68 H22         -8.6080    -0.8820     4.2610 hc         1 COV       0.054200
     69 H22A        -8.8870    -0.2520     5.9120 hc         1 COV       0.054200
     70 H23         -8.6690     2.0290     5.1980 hc         1 COV       0.066700
     71 H24         -9.5760     0.7030     2.6010 hc         1 COV       0.052700
     72 H24A       -10.6470     0.9400     3.9880 hc         1 COV       0.052700
     73 H28         -7.3100     1.0370     2.6490 h1         1 COV       0.057700
     74 H28A        -7.0450     2.5720     3.5160 h1         1 COV       0.057700
     75 HO1         -0.6960     1.8290    -0.0270 ho         1 COV       0.400000
     76 HO25        -9.2250     3.9530     1.6990 ho         1 COV       0.403000
@<TRIPOS>BOND
     1     1     3 1
     2     1    14 1
     3     1    30 1
     4     2    21 1
     5     2    25 1
     6     2    26 1
     7     2    31 1
     8     3     7 1
     9     4     5 1
    10     4     6 1
    11     4    28 1
    12     4    32 1
    13     7     8 1
    14     7    24 1
    15     8     9 1
    16     9    10 2
    17     9    14 1
    18    10    11 1
    19    11    12 2
    20    12    13 1
    21    12    18 1
    22    13    15 1
    23    14    23 2
    24    15    16 1
    25    16    17 1
    26    17    18 1
    27    17    21 1
    28    17    22 1
    29    18    19 1
    30    19    20 1
    31    20    21 1
    32    26    27 1
    33    27    28 1
    34    27    29 1
    35    29    31 1
    36     1    33 1
    37     3    34 1
    38     3    35 1
    39     5    36 1
    40     5    37 1
    41     5    38 1
    42     6    39 1
    43     6    40 1
    44     6    41 1
    45     7    42 1
    46     8    43 1
    47     8    44 1
    48    10    45 1
    49    11    46 1
    50    13    47 1
    51    13    48 1
    52    15    49 1
    53    15    50 1
    54    16    51 1
    55    16    52 1
    56    18    53 1
    57    19    54 1
    58    19    55 1
    59    20    56 1
    60    20    57 1
    61    21    58 1
    62    22    59 1
    63    22    60 1
    64    22    61 1
    65    23    62 1
    66    23    63 1
    67    24    64 1
    68    25    65 1
    69    25    66 1
    70    25    67 1
    71    26    68 1
    72    26    69 1
    73    27    70 1
    74    28    71 1
    75    28    72 1
    76    29    73 1
    77    29    74 1
    78    30    75 1
    79    32    76 1
@<TRIPOS>SUBSTRUCTURE
     1 COV         1 TEMP              0 ****  ****    0 ROOT
