@<TRIPOS>MOLECULE
COX
   37    39     1     0     0
SMALL
bcc


@<TRIPOS>ATOM
      1 S1          0.1730   -0.0840   -0.1100 sy        1 COX      1.505200
      2 O1          1.2200    0.6440   -0.6360 o         1 COX     -0.572800
      3 O2         -0.0410   -0.1600    1.2500 o         1 COX     -0.572800
      4 N1         -1.2900    1.1120   -0.5760 n4        1 COX     -0.782500
      5 C1         -0.2950   -1.3330   -0.9590 ca        1 COX     -0.601500
      6 C2         -1.1320   -2.3340   -0.4020 ca        1 COX      0.023500
      7 C3         -1.4780   -3.4660   -1.1080 ca        1 COX     -0.168000
      8 C4         -1.0020   -3.6750   -2.4230 ca        1 COX      0.183000
      9 C5         -0.1670   -2.6840   -2.9900 ca        1 COX     -0.168000
     10 C6          0.1770   -1.5540   -2.2770 ca        1 COX      0.023500
     11 C7         -1.3570   -4.8440   -3.1620 cc        1 COX     -0.357600
     12 C8         -1.3760   -5.0210   -4.5510 cd        1 COX      0.358000
     13 C9         -1.0750   -4.2050   -5.7270 c3        1 COX     -0.167400
     14 O3         -1.8270   -6.3220   -4.8040 os        1 COX     -0.089100
     15 N2         -2.0650   -6.9650   -3.6750 nd        1 COX     -0.313300
     16 C10        -1.8110   -6.1480   -2.6350 cc        1 COX      0.414800
     17 C11        -1.9430   -6.5410   -1.2360 ca        1 COX     -0.172500
     18 C12        -3.2160   -6.6730   -0.6660 ca        1 COX     -0.104000
     19 C13        -3.3410   -7.0760    0.6620 ca        1 COX     -0.129500
     20 C14        -2.2040   -7.3580    1.4200 ca        1 COX     -0.104000
     21 C15        -0.9370   -7.2380    0.8490 ca        1 COX     -0.129500
     22 C16        -0.8010   -6.8330   -0.4790 ca        1 COX     -0.104000
     23 HN11       -0.9290    1.9470   -1.0290 hn        1 COX      0.450800
     24 HN12       -1.9580    0.6750   -1.2010 hn        1 COX      0.450800
     25 H2         -1.4990   -2.2060    0.6340 ha        1 COX      0.165000
     26 H3         -2.1290   -4.2290   -0.6420 ha        1 COX      0.178000
     27 H5          0.2350   -2.8300   -4.0060 ha        1 COX      0.178000
     28 H6          0.8570   -0.8080   -2.7320 ha        1 COX      0.165000
     29 H91        -1.4400   -3.1580   -5.5770 hc        1 COX      0.085033
     30 H92        -1.5630   -4.6340   -6.6400 hc        1 COX      0.085033
     31 H93         0.0330   -4.1860   -5.9010 hc        1 COX      0.085033
     32 H12        -4.1140   -6.4760   -1.2710 ha        1 COX      0.144000
     33 H13        -4.3420   -7.1870    1.1080 ha        1 COX      0.148500
     34 H14        -2.3070   -7.6880    2.4650 ha        1 COX      0.149000
     35 H15        -0.0400   -7.4780    1.4410 ha        1 COX      0.148500
     36 H16         0.1980   -6.7620   -0.9340 ha        1 COX      0.144000
     37 H131       -1.7850    1.4020    0.2640 hn        1 COX      0.450800
@<TRIPOS>BOND
     1    1    2 2   
     2    1    3 2   
     3    1    4 1   
     4    1    5 1   
     5    4   23 1   
     6    4   24 1   
     7    4   37 1   
     8    5    6 ar  
     9    5   10 ar  
    10    6    7 ar  
    11    6   25 1   
    12    7    8 ar  
    13    7   26 1   
    14    8    9 ar  
    15    8   11 1   
    16    9   10 ar  
    17    9   27 1   
    18   10   28 1   
    19   11   12 2   
    20   11   16 1   
    21   12   13 1   
    22   12   14 1   
    23   13   29 1   
    24   13   30 1   
    25   13   31 1   
    26   14   15 1   
    27   15   16 2   
    28   16   17 1   
    29   17   18 ar  
    30   17   22 ar  
    31   18   19 ar  
    32   18   32 1   
    33   19   20 ar  
    34   19   33 1   
    35   20   21 ar  
    36   20   34 1   
    37   21   22 ar  
    38   21   35 1   
    39   22   36 1   
@<TRIPOS>SUBSTRUCTURE
     1 COX         1 TEMP              0 ****  ****    0 ROOT
