@<TRIPOS>MOLECULE
CP
   10     9     1     0     0
SMALL
bcc


@<TRIPOS>ATOM
      1 N           0.3540   -0.3560   -0.4420 n         1 CP      -0.656000
      2 C           1.3480   -0.1550    0.5620 c         1 CP       0.773100
      3 O           0.9880    0.0550    1.7560 o         1 CP      -0.745000
      4 O4P         2.6190   -0.2770    0.2990 os        1 CP      -0.509500
      5 P           3.5980    0.1600   -1.1670 p5        1 CP       1.336900
      6 O1P         4.2440   -1.1480   -1.4900 o         1 CP      -0.909833
      7 O2P         2.4560    0.5800   -2.0530 o         1 CP      -0.909833
      8 O3P         4.4690    1.2540   -0.6440 o         1 CP      -0.909833
      9 HN1        -0.4280    0.2420   -0.2980 hn        1 CP       0.264500
     10 HN2         0.7590   -0.2410   -1.3620 hn        1 CP       0.264500
@<TRIPOS>BOND
     1    1    2 1   
     2    1    9 1   
     3    1   10 1   
     4    2    3 2   
     5    2    4 1   
     6    4    5 1   
     7    5    6 1   
     8    5    7 1   
     9    5    8 1   
@<TRIPOS>SUBSTRUCTURE
     1 CP          1 TEMP              0 ****  ****    0 ROOT
