@<TRIPOS>MOLECULE
molecule
   11    10     1     0     0
SMALL
bcc


@<TRIPOS>ATOM
      1 Cl1          0.0000     0.0000     0.0000 cl         1 CP2      -0.185400
      2 C2           1.8020     0.0000     0.0000 c3         1 CP2       0.040000
      3 C3           2.3130     0.0000     1.4410 c3         1 CP2       0.045700
      4 C4           3.8430     0.0000     1.4390 c3         1 CP2      -0.101100
      5 Cl5          1.7130    -1.4710     2.2910 cl         1 CP2      -0.185400
      6 HC21         2.1630     0.8840    -0.5110 h1         1 CP2       0.073700
      7 HC22         2.1630    -0.8840    -0.5110 h1         1 CP2       0.073700
      8 HC31         1.9530     0.8850     1.9520 h1         1 CP2       0.084700
      9 HC41         4.2040    -0.8840     0.9280 hc         1 CP2       0.051033
     10 HC42         4.2030     0.8850     0.9280 hc         1 CP2       0.051033
     11 HC43         4.2050     0.0010     2.4600 hc         1 CP2       0.051033
@<TRIPOS>BOND
     1     1     2 1
     2     2     3 1
     3     2     6 1
     4     2     7 1
     5     3     4 1
     6     3     5 1
     7     3     8 1
     8     4     9 1
     9     4    10 1
    10     4    11 1
@<TRIPOS>SUBSTRUCTURE
     1 CP2         1 TEMP              0 ****  ****    0 ROOT
