@<TRIPOS>MOLECULE
CP2
   11    10     1     0     0
SMALL
bcc


@<TRIPOS>ATOM
      1 CL1         0.0600    0.1790   -0.0630 cl        1 CP2     -0.173400
      2 C2          1.7930   -0.0490    0.0150 c3        1 CP2      0.022000
      3 C3          2.3160   -0.0420    1.4370 c3        1 CP2      0.043700
      4 C4          3.8250    0.0370    1.4410 c3        1 CP2     -0.106100
      5 CL5         1.7810   -1.4880    2.3030 cl        1 CP2     -0.183400
      6 HC21        2.2520    0.7930   -0.5600 h1        1 CP2      0.076700
      7 HC22        2.0180   -1.0180   -0.4950 h1        1 CP2      0.076700
      8 HC31        1.8790    0.8170    2.0120 h1        1 CP2      0.086700
      9 HC41        4.2150    0.0130    2.4870 hc        1 CP2      0.052033
     10 HC42        4.2710   -0.8170    0.8760 hc        1 CP2      0.052033
     11 HC43        4.1520    0.9920    0.9620 hc        1 CP2      0.052033
@<TRIPOS>BOND
     1    1    2 1   
     2    2    3 1   
     3    2    6 1   
     4    2    7 1   
     5    3    4 1   
     6    3    5 1   
     7    3    8 1   
     8    4    9 1   
     9    4   10 1   
    10    4   11 1   
@<TRIPOS>SUBSTRUCTURE
     1 CP2         1 TEMP              0 ****  ****    0 ROOT
