@<TRIPOS>MOLECULE
CP3
   88    92     1     0     0
SMALL
bcc


@<TRIPOS>ATOM
      1 O2R         7.3960    1.4200    1.7210 o         1 CP3     -0.868300
      2 C63         7.4890    1.1450    0.4860 c         1 CP3      0.903600
      3 O1R         8.5930    1.1650   -0.1350 o         1 CP3     -0.868300
      4 C62         6.2120    0.7300   -0.2580 c3        1 CP3     -0.180400
      5 C61         6.1160    1.3460   -1.6390 c3        1 CP3     -0.002100
      6 C18         5.0990    0.7040   -2.4920 cc        1 CP3     -0.115300
      7 C19         3.8730    1.2520   -2.9270 cd        1 CP3     -0.135600
      8 N24         3.2230    0.3090   -3.7260 na        1 CP3     -0.168600
      9 C20         3.2990    2.5800   -2.6050 c3        1 CP3      0.062200
     10 C1          2.2650    3.0610   -3.5500 cc        1 CP3     -0.145600
     11 C17         5.1830   -0.6200   -3.0530 cc        1 CP3     -0.142300
     12 C86         6.2880   -1.5630   -2.8740 c3        1 CP3     -0.020800
     13 C16         4.0060   -0.8420   -3.7980 cd        1 CP3     -0.142600
     14 C15         3.5940   -2.0880   -4.4820 c3        1 CP3      0.064200
     15 C14         3.2050   -1.9600   -5.9050 cc        1 CP3     -0.137600
     16 N23         3.2910   -0.7830   -6.6540 na        1 CP3     -0.162100
     17 C13         2.6930   -2.9850   -6.7310 cd        1 CP3     -0.115300
     18 C51         2.5100   -4.4020   -6.3710 c3        1 CP3     -0.003100
     19 C52         1.0810   -4.8980   -6.4600 c3        1 CP3     -0.181400
     20 C53         1.0080   -6.4260   -6.5850 c         1 CP3      0.902600
     21 O2M         0.1350   -7.0420   -5.9020 o         1 CP3     -0.868800
     22 O1M         1.7920   -7.0220   -7.3840 o         1 CP3     -0.868800
     23 C12         2.4780   -2.4010   -8.0290 cd        1 CP3     -0.147300
     24 C81         1.9530   -3.0890   -9.2100 c3        1 CP3     -0.019800
     25 C11         2.8720   -1.0480   -7.9560 cc        1 CP3     -0.138600
     26 C10         2.9140   -0.0960   -9.0850 c3        1 CP3      0.068200
     27 C6          2.7310    1.3420   -8.7960 cc        1 CP3     -0.146600
     28 N22         2.0450    1.8850   -7.7130 na        1 CP3     -0.168600
     29 C7          3.1570    2.4000   -9.6270 cd        1 CP3     -0.136300
     30 C7A         3.9200    2.2770  -10.8710 c3        1 CP3     -0.040800
     31 C8          2.6890    3.6270   -9.0360 cd        1 CP3     -0.110300
     32 C41         2.8540    4.9640   -9.6370 c3        1 CP3     -0.001100
     33 C42         4.2990    5.3890   -9.8220 c3        1 CP3     -0.185400
     34 C43         4.5480    6.0330  -11.1940 c         1 CP3      0.903600
     35 O28         5.1580    7.1440  -11.2370 o         1 CP3     -0.867800
     36 O18         4.1680    5.4220  -12.2390 o         1 CP3     -0.867800
     37 C9          1.9950    3.2770   -7.8590 cc        1 CP3     -0.144600
     38 C5          1.2600    4.1640   -6.9270 c3        1 CP3      0.059200
     39 C4          1.3350    3.7800   -5.4970 cc        1 CP3     -0.138600
     40 N21         2.4810    3.2280   -4.9180 na        1 CP3     -0.170100
     41 C3          0.3580    3.9390   -4.4910 cd        1 CP3     -0.112300
     42 C2          0.9490    3.4770   -3.2600 cd        1 CP3     -0.143300
     43 C2A         0.2990    3.4540   -1.9490 c3        1 CP3     -0.021800
     44 C31        -1.0180    4.4500   -4.6400 c3        1 CP3     -0.003100
     45 C32        -1.2400    5.7880   -3.9650 c3        1 CP3     -0.180400
     46 C33        -2.7280    6.1270   -3.7960 c         1 CP3      0.903600
     47 O13        -3.5510    5.2070   -3.5120 o         1 CP3     -0.867800
     48 O23        -3.0770    7.3410   -3.9150 o         1 CP3     -0.867800
     49 H621        6.2240   -0.3870   -0.3470 hc        1 CP3      0.025700
     50 H622        5.3210    1.0150    0.3550 hc        1 CP3      0.025700
     51 H611        5.8920    2.4410   -1.5390 hc        1 CP3      0.046700
     52 H612        7.1260    1.2580   -2.1310 hc        1 CP3      0.046700
     53 HN4         2.3170    0.4140   -4.1010 hn        1 CP3      0.299200
     54 H201        4.1430    3.3250   -2.5580 hc        1 CP3      0.064700
     55 H202        2.8370    2.5350   -1.5790 hc        1 CP3      0.064700
     56 H861        7.1740   -1.0440   -2.4270 hc        1 CP3      0.035033
     57 H862        5.9870   -2.3950   -2.1880 hc        1 CP3      0.035033
     58 H863        6.5910   -2.0150   -3.8530 hc        1 CP3      0.035033
     59 H151        4.4520   -2.8160   -4.4160 hc        1 CP3      0.063200
     60 H152        2.7270   -2.5490   -3.9260 hc        1 CP3      0.063200
     61 HN3         3.7500    0.0410   -6.3640 hn        1 CP3      0.300700
     62 H511        3.1360   -5.0320   -7.0670 hc        1 CP3      0.045700
     63 H512        2.8940   -4.5750   -5.3300 hc        1 CP3      0.045700
     64 H521        0.5830   -4.4620   -7.3640 hc        1 CP3      0.027700
     65 H522        0.5020   -4.5720   -5.5610 hc        1 CP3      0.027700
     66 H811        2.0660   -4.1980   -9.0950 hc        1 CP3      0.034367
     67 H812        0.8640   -2.8610   -9.3440 hc        1 CP3      0.034367
     68 H813        2.4910   -2.7630  -10.1350 hc        1 CP3      0.034367
     69 H101        3.9070   -0.2080   -9.6100 hc        1 CP3      0.055700
     70 H102        2.1180   -0.4100   -9.8220 hc        1 CP3      0.055700
     71 HN2         1.5520    1.3730   -7.0300 hn        1 CP3      0.299200
     72 H7A1        3.9390    3.2600  -11.4210 hc        1 CP3      0.045367
     73 H7A2        4.9760    1.9740  -10.6530 hc        1 CP3      0.045367
     74 H7A3        3.4680    1.4960  -11.5340 hc        1 CP3      0.045367
     75 H411        2.3580    4.9470  -10.6500 hc        1 CP3      0.043700
     76 H412        2.3160    5.7290   -9.0160 hc        1 CP3      0.043700
     77 H421        4.9760    4.5000   -9.7460 hc        1 CP3      0.029700
     78 H422        4.5920    6.1100   -9.0190 hc        1 CP3      0.029700
     79 H51         0.1740    4.1930   -7.2280 hc        1 CP3      0.068700
     80 H52         1.6650    5.2090   -7.0430 hc        1 CP3      0.068700
     81 HN1         3.3360    3.0800   -5.3850 hn        1 CP3      0.298700
     82 H2A1       -0.8100    3.5560   -2.0630 hc        1 CP3      0.036033
     83 H2A2        0.6630    4.3040   -1.3170 hc        1 CP3      0.036033
     84 H2A3        0.5200    2.5000   -1.4070 hc        1 CP3      0.036033
     85 H311       -1.2770    4.5420   -5.7290 hc        1 CP3      0.047700
     86 H312       -1.7400    3.7100   -4.1910 hc        1 CP3      0.047700
     87 H321       -0.7830    5.7720   -2.9410 hc        1 CP3      0.026700
     88 H322       -0.7420    6.6030   -4.5470 hc        1 CP3      0.026700
@<TRIPOS>BOND
     1    1    2 1   
     2    2    3 1   
     3    2    4 1   
     4    4    5 1   
     5    4   49 1   
     6    4   50 1   
     7    5    6 1   
     8    5   51 1   
     9    5   52 1   
    10    6    7 2   
    11    6   11 1   
    12    7    8 1   
    13    7    9 1   
    14    8   13 1   
    15    8   53 1   
    16    9   10 1   
    17    9   54 1   
    18    9   55 1   
    19   10   40 1   
    20   10   42 2   
    21   11   12 1   
    22   11   13 2   
    23   12   56 1   
    24   12   57 1   
    25   12   58 1   
    26   13   14 1   
    27   14   15 1   
    28   14   59 1   
    29   14   60 1   
    30   15   16 1   
    31   15   17 2   
    32   16   25 1   
    33   16   61 1   
    34   17   18 1   
    35   17   23 1   
    36   18   19 1   
    37   18   62 1   
    38   18   63 1   
    39   19   20 1   
    40   19   64 1   
    41   19   65 1   
    42   20   21 1   
    43   20   22 1   
    44   23   24 1   
    45   23   25 2   
    46   24   66 1   
    47   24   67 1   
    48   24   68 1   
    49   25   26 1   
    50   26   27 1   
    51   26   69 1   
    52   26   70 1   
    53   27   28 1   
    54   27   29 2   
    55   28   37 1   
    56   28   71 1   
    57   29   30 1   
    58   29   31 1   
    59   30   72 1   
    60   30   73 1   
    61   30   74 1   
    62   31   32 1   
    63   31   37 2   
    64   32   33 1   
    65   32   75 1   
    66   32   76 1   
    67   33   34 1   
    68   33   77 1   
    69   33   78 1   
    70   34   35 1   
    71   34   36 1   
    72   37   38 1   
    73   38   39 1   
    74   38   79 1   
    75   38   80 1   
    76   39   40 1   
    77   39   41 2   
    78   40   81 1   
    79   41   42 1   
    80   41   44 1   
    81   42   43 1   
    82   43   82 1   
    83   43   83 1   
    84   43   84 1   
    85   44   45 1   
    86   44   85 1   
    87   44   86 1   
    88   45   46 1   
    89   45   87 1   
    90   45   88 1   
    91   46   47 1   
    92   46   48 1   
@<TRIPOS>SUBSTRUCTURE
     1 CP3         1 TEMP              0 ****  ****    0 ROOT
