@<TRIPOS>MOLECULE
molecule
   88    92     1     0     0
SMALL
bcc


@<TRIPOS>ATOM
      1 O2R          0.0000     0.0000     0.0000 o          1 CP3      -0.876300
      2 C63          1.3420     0.0000     0.0000 c          1 CP3       0.895600
      3 O1R          1.9460     0.0000     1.0470 o          1 CP3      -0.876300
      4 C62          2.0960    -0.0010    -1.3040 c3         1 CP3      -0.180400
      5 C61          3.6000     0.0000    -1.0240 c3         1 CP3       0.008900
      6 C18          4.3530    -0.0010    -2.3300 cc         1 CP3      -0.120300
      7 C19          4.7530     1.0860    -3.0210 cd         1 CP3      -0.126600
      8 N24          5.3940     0.6620    -4.1460 na         1 CP3      -0.168600
      9 C20          4.5310     2.5200    -2.6180 c3         1 CP3       0.075200
     10 C1           3.6630     3.2010    -3.6450 cc         1 CP3      -0.144600
     11 C17          4.7760    -1.1370    -3.0480 cc         1 CP3      -0.123300
     12 C86          4.5550    -2.5750    -2.6550 c3         1 CP3      -0.019800
     13 C16          5.4110    -0.7010    -4.1560 cd         1 CP3      -0.149600
     14 C15          6.0420    -1.5690    -5.2120 c3         1 CP3       0.078200
     15 C14          5.2470    -1.4660    -6.4890 cc         1 CP3      -0.128600
     16 N23          5.1700    -0.3710    -7.2970 na         1 CP3      -0.162100
     17 C13          4.4870    -2.4420    -7.0280 cd         1 CP3      -0.118300
     18 C51          4.2720    -3.8220    -6.4600 c3         1 CP3       0.008900
     19 C52          3.0560    -3.8070    -5.5310 c3         1 CP3      -0.182400
     20 C53          2.8410    -5.1850    -4.9630 c          1 CP3       0.890600
     21 O2M          1.8240    -5.4120    -4.1160 o          1 CP3      -0.872800
     22 O1M          3.5830    -6.0880    -5.2710 o          1 CP3      -0.872800
     23 C12          3.9330    -1.9340    -8.2190 cd         1 CP3      -0.150300
     24 C81          3.0150    -2.6700    -9.1610 c3         1 CP3      -0.007800
     25 C11          4.3730    -0.6670    -8.3620 cc         1 CP3      -0.124600
     26 C10          4.0470     0.2560    -9.5070 c3         1 CP3       0.077200
     27 C6           3.2980     1.4580    -8.9940 cc         1 CP3      -0.148600
     28 N22          3.7630     2.3700    -8.0950 na         1 CP3      -0.168600
     29 C7           2.0470     1.8180    -9.3490 cd         1 CP3      -0.141300
     30 C7A          1.1480     1.0860   -10.3140 c3         1 CP3      -0.009800
     31 C8           1.7330     3.0010    -8.6520 cd         1 CP3      -0.108300
     32 C41          0.4400     3.7690    -8.7340 c3         1 CP3      -0.003100
     33 C42          0.5700     4.8750    -9.7840 c3         1 CP3      -0.176400
     34 C43         -0.6900     5.7010    -9.8010 c          1 CP3       0.885600
     35 O28         -0.8500     6.6630   -10.7250 o          1 CP3      -0.855300
     36 O18         -1.5570     5.4990    -8.9830 o          1 CP3      -0.855300
     37 C9           2.8040     3.3190    -7.8960 cc         1 CP3      -0.114600
     38 C5           2.9230     4.5200    -6.9950 c3         1 CP3       0.072200
     39 C4           2.9600     4.0730    -5.5570 cc         1 CP3      -0.142600
     40 N21          3.9950     3.4270    -4.9490 na         1 CP3      -0.180100
     41 C3           1.9770     4.2430    -4.6500 cd         1 CP3      -0.100300
     42 C2           2.4240     3.6900    -3.4340 cd         1 CP3      -0.123300
     43 C2A          1.6580     3.6530    -2.1360 c3         1 CP3      -0.018800
     44 C31          0.6450     4.9030    -4.8930 c3         1 CP3      -0.004100
     45 C32          0.7820     6.4140    -4.6980 c3         1 CP3      -0.175400
     46 C33         -0.5700     7.0640    -4.8470 c          1 CP3       0.895600
     47 O13         -1.5570     6.3820    -4.9830 o          1 CP3      -0.862800
     48 O23         -0.6760     8.4030    -4.8290 o          1 CP3      -0.862800
     49 H621         1.8340     0.8830    -1.8730 hc         1 CP3       0.052200
     50 H622         1.8340    -0.8860    -1.8720 hc         1 CP3       0.052200
     51 H611         3.8610     0.8850    -0.4570 hc         1 CP3       0.036700
     52 H612         3.8610    -0.8840    -0.4550 hc         1 CP3       0.036700
     53 HN4          5.7960     1.2540    -4.8460 hn         1 CP3       0.255200
     54 H201         4.0400     2.5510    -1.6520 hc         1 CP3       0.051700
     55 H202         5.4840     3.0290    -2.5550 hc         1 CP3       0.051700
     56 H861         3.5050    -2.8210    -2.7590 hc         1 CP3       0.044700
     57 H862         5.1430    -3.2200    -3.2970 hc         1 CP3       0.044700
     58 H863         4.8590    -2.7180    -1.6250 hc         1 CP3       0.044700
     59 H151         7.0580    -1.2380    -5.3920 hc         1 CP3       0.047700
     60 H152         6.0510    -2.5980    -4.8750 hc         1 CP3       0.047700
     61 HN3          5.6310     0.5040    -7.1390 hn         1 CP3       0.263700
     62 H511         5.1490    -4.1240    -5.9010 hc         1 CP3       0.034200
     63 H512         4.0990    -4.5220    -7.2680 hc         1 CP3       0.034200
     64 H521         3.2280    -3.1060    -4.7230 hc         1 CP3       0.052200
     65 H522         2.1790    -3.5050    -6.0890 hc         1 CP3       0.052200
     66 H811         1.9850    -2.4520    -8.9050 hc         1 CP3       0.029700
     67 H812         3.1900    -3.7360    -9.0750 hc         1 CP3       0.029700
     68 H813         3.2100    -2.3530   -10.1780 hc         1 CP3       0.029700
     69 H101         4.9650     0.5790    -9.9810 hc         1 CP3       0.042200
     70 H102         3.4330    -0.2690   -10.2290 hc         1 CP3       0.042200
     71 HN2          4.6630     2.3510    -7.6590 hn         1 CP3       0.255200
     72 H7A1         0.6040     0.3130    -9.7860 hc         1 CP3       0.028700
     73 H7A2         1.7480     0.6360   -11.0960 hc         1 CP3       0.028700
     74 H7A3         0.4460     1.7840   -10.7540 hc         1 CP3       0.028700
     75 H411         0.2210     4.2100    -7.7700 hc         1 CP3       0.066700
     76 H412        -0.3620     3.0970    -9.0150 hc         1 CP3       0.066700
     77 H421         0.7240     4.4300   -10.7600 hc         1 CP3       0.017200
     78 H422         1.4140     5.5080    -9.5380 hc         1 CP3       0.017200
     79 H51          3.8330     5.0580    -7.2300 hc         1 CP3       0.067200
     80 H52          2.0700     5.1710    -7.1480 hc         1 CP3       0.067200
     81 HN1          4.8590     3.1710    -5.3840 hn         1 CP3       0.247700
     82 H2A1         1.2530     4.6360    -1.9280 hc         1 CP3       0.043700
     83 H2A2         2.3220     3.3580    -1.3330 hc         1 CP3       0.043700
     84 H2A3         0.8480     2.9380    -2.2150 hc         1 CP3       0.043700
     85 H311        -0.0850     4.5140    -4.1940 hc         1 CP3       0.067200
     86 H312         0.3200     4.6980    -5.9060 hc         1 CP3       0.067200
     87 H321         1.4590     6.8150    -5.4430 hc         1 CP3       0.018700
     88 H322         1.1730     6.6170    -3.7090 hc         1 CP3       0.018700
@<TRIPOS>BOND
     1     1     2 1
     2     2     3 1
     3     2     4 1
     4     4     5 1
     5     4    49 1
     6     4    50 1
     7     5     6 1
     8     5    51 1
     9     5    52 1
    10     6     7 2
    11     6    11 1
    12     7     8 1
    13     7     9 1
    14     8    13 1
    15     8    53 1
    16     9    10 1
    17     9    54 1
    18     9    55 1
    19    10    40 1
    20    10    42 2
    21    11    12 1
    22    11    13 2
    23    12    56 1
    24    12    57 1
    25    12    58 1
    26    13    14 1
    27    14    15 1
    28    14    59 1
    29    14    60 1
    30    15    16 1
    31    15    17 2
    32    16    25 1
    33    16    61 1
    34    17    18 1
    35    17    23 1
    36    18    19 1
    37    18    62 1
    38    18    63 1
    39    19    20 1
    40    19    64 1
    41    19    65 1
    42    20    21 1
    43    20    22 1
    44    23    24 1
    45    23    25 2
    46    24    66 1
    47    24    67 1
    48    24    68 1
    49    25    26 1
    50    26    27 1
    51    26    69 1
    52    26    70 1
    53    27    28 1
    54    27    29 2
    55    28    37 1
    56    28    71 1
    57    29    30 1
    58    29    31 1
    59    30    72 1
    60    30    73 1
    61    30    74 1
    62    31    32 1
    63    31    37 2
    64    32    33 1
    65    32    75 1
    66    32    76 1
    67    33    34 1
    68    33    77 1
    69    33    78 1
    70    34    35 1
    71    34    36 1
    72    37    38 1
    73    38    39 1
    74    38    79 1
    75    38    80 1
    76    39    40 1
    77    39    41 2
    78    40    81 1
    79    41    42 1
    80    41    44 1
    81    42    43 1
    82    43    82 1
    83    43    83 1
    84    43    84 1
    85    44    45 1
    86    44    85 1
    87    44    86 1
    88    45    46 1
    89    45    87 1
    90    45    88 1
    91    46    47 1
    92    46    48 1
@<TRIPOS>SUBSTRUCTURE
     1 CP3         1 TEMP              0 ****  ****    0 ROOT
