@<TRIPOS>MOLECULE
CP4
   58    61     1     0     0
SMALL
bcc


@<TRIPOS>ATOM
      1 C0           0.0000     0.0000     0.0000 ca         1 CP4      -0.116300
      2 C1           1.4080     0.0000     0.0000 ca         1 CP4      -0.220700
      3 C2          -0.4130    -0.0010     1.3540 cc         1 CP4      -0.058200
      4 C3          -0.6940     0.0060    -1.2160 ca         1 CP4      -0.028000
      5 N4           1.8200     0.0000     1.3110 na         1 CP4       0.369100
      6 C5           2.0920     0.0010    -1.2130 ca         1 CP4      -0.098000
      7 C6           0.7050    -0.0010     2.1280 cd         1 CP4      -0.337300
      8 C7          -0.0010     0.0000    -2.3930 ca         1 CP4      -0.064100
      9 C8           1.3880     0.0020    -2.3950 ca         1 CP4      -0.074000
     10 C9           0.7240    -0.0030     3.5980 c          1 CP4       0.624800
     11 Cl10        -0.8650     0.0010    -3.8990 cl         1 CP4      -0.033400
     12 N11          1.9000    -0.0030     4.2560 ns         1 CP4      -0.199400
     13 O12         -0.3200    -0.0040     4.2200 o          1 CP4      -0.632600
     14 C13          1.9190    -0.0050     5.7200 c3         1 CP4       0.050000
     15 C14          3.3680    -0.0050     6.2120 c3         1 CP4       0.182400
     16 O15          4.0350     1.1620     5.7280 os         1 CP4      -0.391600
     17 C16          5.3770     1.1050     6.2170 c3         1 CP4       0.195900
     18 C17          6.1490     2.3320     5.7320 c3         1 CP4       0.195900
     19 O18          5.5160     3.5160     6.2190 os         1 CP4      -0.391600
     20 C19          6.2800     4.6220     5.7350 c3         1 CP4       0.182400
     21 C20          5.6520     5.9290     6.2230 c3         1 CP4       0.050000
     22 N21          5.6380     5.9480     7.6880 ns         1 CP4      -0.199400
     23 C22          5.1280     7.0080     8.3440 c          1 CP4       0.624800
     24 C23          5.1160     7.0270     9.8140 cc         1 CP4      -0.337300
     25 O24          4.6780     7.9500     7.7190 o          1 CP4      -0.632600
     26 N25          5.5950     6.0230    10.6320 na         1 CP4       0.369100
     27 C26          4.6350     8.0370    10.5850 cd         1 CP4      -0.058200
     28 C27          5.4140     6.3950    11.9440 ca         1 CP4      -0.220700
     29 C28          4.8050     7.6640    11.9400 ca         1 CP4      -0.116300
     30 C29          5.7060     5.7800    13.1570 ca         1 CP4      -0.098000
     31 C30          4.5010     8.2920    13.1560 ca         1 CP4      -0.028000
     32 C31          5.3990     6.4160    14.3390 ca         1 CP4      -0.074000
     33 C32          4.7980     7.6680    14.3340 ca         1 CP4      -0.064100
     34 Cl33         4.4210     8.4480    15.8380 cl         1 CP4      -0.033400
     35 H2          -1.4360    -0.0020     1.7100 ha         1 CP4       0.144500
     36 H3          -1.7770     0.0040    -1.2240 ha         1 CP4       0.115500
     37 HN4          2.7710     0.0000     1.6230 hn         1 CP4       0.112700
     38 H5           3.1750     0.0020    -1.2250 ha         1 CP4       0.102000
     39 H8           1.9220    -0.0030    -3.3380 ha         1 CP4       0.112500
     40 H11          2.7600    -0.0280     3.7450 hn         1 CP4       0.169500
     41 H131         1.4140    -0.8900     6.0870 h1         1 CP4       0.036200
     42 H132         1.4130     0.8790     6.0890 h1         1 CP4       0.036200
     43 H141         3.8740    -0.8890     5.8440 h1         1 CP4       0.000700
     44 H142         3.3820    -0.0060     7.2950 h1         1 CP4       0.000700
     45 H161         5.8580     0.2070     5.8490 h1         1 CP4       0.000200
     46 H162         5.3660     1.0900     7.3010 h1         1 CP4       0.000200
     47 H171         6.1590     2.3470     4.6490 h1         1 CP4       0.000200
     48 H172         7.1660     2.2880     6.1020 h1         1 CP4       0.000200
     49 H191         7.2950     4.5490     6.1060 h1         1 CP4       0.000700
     50 H192         6.2890     4.6090     4.6520 h1         1 CP4       0.000700
     51 H201         6.2310     6.7670     5.8560 h1         1 CP4       0.036200
     52 H202         4.6370     6.0020     5.8520 h1         1 CP4       0.036200
     53 H21          6.0200     5.1790     8.2010 hn         1 CP4       0.169500
     54 H25          6.0060     5.1650    10.3210 hn         1 CP4       0.112700
     55 H26          4.1250     8.9240    10.2270 ha         1 CP4       0.144500
     56 H29          6.1740     4.8030    13.1710 ha         1 CP4       0.102000
     57 H30          4.0320     9.2690    13.1610 ha         1 CP4       0.115500
     58 H31          5.6280     5.9340    15.2820 ha         1 CP4       0.112500
@<TRIPOS>BOND
     1     1     2 ar  
     2     1     3 1   
     3     1     4 ar  
     4     2     5 1   
     5     2     6 ar  
     6     3     7 2   
     7     3    35 1   
     8     4     8 ar  
     9     4    36 1   
    10     5     7 1   
    11     5    37 1   
    12     6     9 ar  
    13     6    38 1   
    14     7    10 1   
    15     8     9 ar  
    16     8    11 1   
    17     9    39 1   
    18    10    12 1   
    19    10    13 2   
    20    12    14 1   
    21    12    40 1   
    22    14    15 1   
    23    14    41 1   
    24    14    42 1   
    25    15    16 1   
    26    15    43 1   
    27    15    44 1   
    28    16    17 1   
    29    17    18 1   
    30    17    45 1   
    31    17    46 1   
    32    18    19 1   
    33    18    47 1   
    34    18    48 1   
    35    19    20 1   
    36    20    21 1   
    37    20    49 1   
    38    20    50 1   
    39    21    22 1   
    40    21    51 1   
    41    21    52 1   
    42    22    23 1   
    43    22    53 1   
    44    23    24 1   
    45    23    25 2   
    46    24    26 1   
    47    24    27 2   
    48    26    28 1   
    49    26    54 1   
    50    27    29 1   
    51    27    55 1   
    52    28    29 ar  
    53    28    30 ar  
    54    29    31 ar  
    55    30    32 ar  
    56    30    56 1   
    57    31    33 ar  
    58    31    57 1   
    59    32    33 ar  
    60    32    58 1   
    61    33    34 1   
@<TRIPOS>SUBSTRUCTURE
     1 CP4         1 TEMP              0 ****  ****    0 ROOT
