@<TRIPOS>MOLECULE
molecule
   21    21     1     0     0
SMALL
bcc


@<TRIPOS>ATOM
      1 C1           0.0000     0.0000     0.0000 ca         1 CP5      -0.164000
      2 C2           1.4000     0.0000     0.0000 ca         1 CP5      -0.134500
      3 C3           2.0980     0.0000     1.1630 ca         1 CP5      -0.119500
      4 C4           1.3550     0.0010     2.4440 ca         1 CP5       0.017200
      5 C5          -0.1260     0.0010     2.3950 ca         1 CP5      -0.119500
      6 C6          -0.7420     0.0010     1.1880 ca         1 CP5      -0.134500
      7 C7           2.0270     0.0010     3.6560 ce         1 CP5      -0.141400
      8 C8           1.9130     1.1640     4.5660 c2         1 CP5      -0.061900
      9 C9           2.8630    -1.1680     4.0430 c          1 CP5       0.920800
     10 O1           2.5060     1.1630     5.6370 os         1 CP5      -0.159500
     11 P1           2.3190     2.5520     6.6340 p4         1 CP5       0.957200
     12 O2           0.7570     3.0100     7.1880 o          1 CP5      -0.436000
     13 O3           3.6960     3.4850     7.0760 o          1 CP5      -0.484800
     14 O4           3.4550    -1.1680     5.1120 o          1 CP5      -0.813800
     15 O5           2.9580    -2.1270     3.2930 o          1 CP5      -0.813800
     16 H1          -0.5250    -0.0000    -0.9470 ha         1 CP5       0.105000
     17 H2           1.9340    -0.0010    -0.9430 ha         1 CP5       0.109500
     18 H3           3.1810    -0.0000     1.1540 ha         1 CP5       0.137000
     19 H5          -0.7070     0.0020     3.3090 ha         1 CP5       0.137000
     20 H6          -1.8240     0.0010     1.1410 ha         1 CP5       0.109500
     21 H8           1.3040     2.0150     4.2850 h4         1 CP5       0.090000
@<TRIPOS>BOND
     1     1     2 ar
     2     1     6 ar
     3     1    16 1
     4     2     3 ar
     5     2    17 1
     6     3     4 ar
     7     3    18 1
     8     4     5 ar
     9     4     7 1
    10     5     6 ar
    11     5    19 1
    12     6    20 1
    13     7     8 2
    14     7     9 1
    15     8    10 1
    16     8    21 1
    17     9    14 1
    18     9    15 1
    19    10    11 1
    20    11    12 1
    21    11    13 2
@<TRIPOS>SUBSTRUCTURE
     1 CP5         1 TEMP              0 ****  ****    0 ROOT
