@<TRIPOS>MOLECULE
CP5
   21    21     1     0     0
SMALL
bcc


@<TRIPOS>ATOM
      1 C1         -0.1400   -0.2240    0.1130 ca        1 CP5     -0.148000
      2 C2          1.1780   -0.6800    0.1530 ca        1 CP5     -0.149500
      3 C3          1.9590   -0.4800    1.2880 ca        1 CP5     -0.116000
      4 C4          1.4270    0.1930    2.4010 ca        1 CP5     -0.024800
      5 C5          0.0990    0.6410    2.3570 ca        1 CP5     -0.116000
      6 C6         -0.6790    0.4320    1.2190 ca        1 CP5     -0.149500
      7 C7          2.2550    0.4140    3.5850 ce        1 CP5     -0.105400
      8 C8          2.1640    1.5880    4.2430 c2        1 CP5     -0.011900
      9 C9          3.1670   -0.7330    4.0270 c         1 CP5      0.923800
     10 O1          2.9740    1.9210    5.3120 os        1 CP5     -0.465500
     11 P1          2.3950    1.8090    6.7900 p4        1 CP5      1.651200
     12 O2          0.9520    1.8650    6.8930 o         1 CP5     -0.688000
     13 O3          3.4090    1.9680    7.8100 o         1 CP5     -0.736800
     14 O4          2.9480   -1.2350    5.1650 o         1 CP5     -0.822800
     15 O5          4.0700   -1.1110    3.2350 o         1 CP5     -0.822800
     16 H1         -0.7530   -0.3870   -0.7840 ha        1 CP5      0.110000
     17 H2          1.6030   -1.2070   -0.7130 ha        1 CP5      0.115000
     18 H3          2.9990   -0.8560    1.3460 ha        1 CP5      0.162000
     19 H5         -0.3340    1.1480    3.2320 ha        1 CP5      0.162000
     20 H6         -1.7200    0.7830    1.1960 ha        1 CP5      0.115000
     21 H8          1.5360    2.4350    3.9180 h4        1 CP5      0.118000
@<TRIPOS>BOND
     1    1    2 ar  
     2    1    6 ar  
     3    1   16 1   
     4    2    3 ar  
     5    2   17 1   
     6    3    4 ar  
     7    3   18 1   
     8    4    5 ar  
     9    4    7 1   
    10    5    6 ar  
    11    5   19 1   
    12    6   20 1   
    13    7    8 2   
    14    7    9 1   
    15    8   10 1   
    16    8   21 1   
    17    9   14 1   
    18    9   15 1   
    19   10   11 1   
    20   11   12 1   
    21   11   13 2   
@<TRIPOS>SUBSTRUCTURE
     1 CP5         1 TEMP              0 ****  ****    0 ROOT
