@<TRIPOS>MOLECULE
molecule
   30    31     1     0     0
SMALL
bcc


@<TRIPOS>ATOM
      1 N1           0.0000     0.0000     0.0000 nb         1 CP6      -0.825000
      2 C2           1.3250     0.0000     0.0000 ca         1 CP6       0.960900
      3 C3          -0.6780    -0.0010     1.1410 ca         1 CP6       0.766200
      4 C4           0.0340    -0.0070     2.3560 cp         1 CP6      -0.368600
      5 C5           1.4250    -0.0010     2.3030 ca         1 CP6       0.524600
      6 N6           2.0250     0.0000     1.1240 nb         1 CP6      -0.803000
      7 C7          -0.6780    -0.0090     3.6550 cp         1 CP6       0.001000
      8 C8          -1.4030    -1.1300     4.0540 ca         1 CP6      -0.115000
      9 C9          -2.0640    -1.1260     5.2660 ca         1 CP6      -0.121000
     10 C10         -2.0090    -0.0120     6.0840 ca         1 CP6       0.024400
     11 C11         -1.2910     1.1050     5.6920 ca         1 CP6      -0.121000
     12 C12         -0.6220     1.1100     4.4850 ca         1 CP6      -0.115000
     13 N13         -2.0620    -0.0020     1.1370 nv         1 CP6      -1.064500
     14 N14          1.9960     0.0010    -1.2090 nv         1 CP6      -1.002500
     15 C15          2.2370    -0.0020     3.5730 c3         1 CP6      -0.137700
     16 C16          2.5820    -1.4410     3.9560 c3         1 CP6      -0.083100
     17 Cl1         -2.8420    -0.0140     7.6060 cl         1 CP6      -0.112400
     18 H8          -1.4470    -2.0030     3.4140 ha         1 CP6       0.139500
     19 H9          -2.6280    -1.9980     5.5760 ha         1 CP6       0.143500
     20 H11         -1.2500     1.9740     6.3370 ha         1 CP6       0.143500
     21 H12         -0.0610     1.9850     4.1790 ha         1 CP6       0.139500
     22 H131        -2.5610    -0.8320     1.3900 hn         1 CP6       0.441800
     23 H132        -2.5610     0.8020     0.8120 hn         1 CP6       0.441800
     24 H141         2.9090     0.4070    -1.2750 hn         1 CP6       0.449300
     25 H142         1.5700    -0.4070    -2.0180 hn         1 CP6       0.449300
     26 H151         1.6630     0.4560     4.3700 hc         1 CP6       0.062700
     27 H152         3.1500     0.5600     3.4180 hc         1 CP6       0.062700
     28 H161         1.9150    -2.1210     3.4410 hc         1 CP6       0.040033
     29 H162         3.6060    -1.6540     3.6720 hc         1 CP6       0.040033
     30 H163         2.4710    -1.5660     5.0260 hc         1 CP6       0.040033
@<TRIPOS>BOND
     1     1     2 ar
     2     1     3 ar
     3     2     6 ar
     4     2    14 1
     5     3     4 ar
     6     3    13 1
     7     4     5 ar
     8     4     7 1
     9     5     6 ar
    10     5    15 1
    11     7     8 ar
    12     7    12 ar
    13     8     9 ar
    14     8    18 1
    15     9    10 ar
    16     9    19 1
    17    10    11 ar
    18    10    17 1
    19    11    12 ar
    20    11    20 1
    21    12    21 1
    22    13    22 1
    23    13    23 1
    24    14    24 1
    25    14    25 1
    26    15    16 1
    27    15    26 1
    28    15    27 1
    29    16    28 1
    30    16    29 1
    31    16    30 1
@<TRIPOS>SUBSTRUCTURE
     1 CP6         1 TEMP              0 ****  ****    0 ROOT
