@<TRIPOS>MOLECULE
CP7
   30    31     1     0     0
SMALL
bcc


@<TRIPOS>ATOM
      1 N1           0.0000     0.0000     0.0000 nb         1 CP7      -0.720000
      2 C2           1.3250     0.0000     0.0000 ca         1 CP7       0.719900
      3 C3          -0.6790    -0.0020     1.1410 ca         1 CP7       0.594200
      4 C4           0.0320    -0.0090     2.3560 cp         1 CP7      -0.360600
      5 C5           1.4240    -0.0020     2.3040 ca         1 CP7       0.482600
      6 N6           2.0250     0.0000     1.1240 nb         1 CP7      -0.701000
      7 C7          -0.6800    -0.0110     3.6540 cp         1 CP7       0.005000
      8 C8          -1.4050    -1.1330     4.0520 ca         1 CP7      -0.097500
      9 C9          -2.0670    -1.1290     5.2630 ca         1 CP7      -0.100000
     10 C10         -2.0120    -0.0160     6.0820 ca         1 CP7      -0.106000
     11 C11         -1.2960     1.1000     5.6910 ca         1 CP7      -0.100000
     12 C12         -0.6250     1.1060     4.4850 ca         1 CP7      -0.097500
     13 N13         -2.0620    -0.0040     1.1360 nv         1 CP7      -0.643500
     14 N14          1.9970     0.0020    -1.2090 nv         1 CP7      -0.502500
     15 C15          2.2340    -0.0020     3.5740 c3         1 CP7      -0.093700
     16 C16          2.5810    -1.4400     3.9580 c3         1 CP7       0.014900
     17 H8          -1.4500    -2.0060     3.4120 ha         1 CP7       0.108000
     18 H9          -2.6310    -2.0010     5.5740 ha         1 CP7       0.102000
     19 H10         -2.5360    -0.0170     7.0300 ha         1 CP7       0.102000
     20 H11         -1.2550     1.9690     6.3370 ha         1 CP7       0.102000
     21 H12         -0.0650     1.9820     4.1810 ha         1 CP7       0.108000
     22 H131        -2.5640     0.8480     1.2920 hn         1 CP7       0.279800
     23 H132        -2.5610    -0.8460     0.9280 hn         1 CP7       0.279800
     24 H141         1.4830    -0.0350    -2.0670 hn         1 CP7       0.274800
     25 H142         2.9960     0.0450    -1.2250 hn         1 CP7       0.274800
     26 H151         1.6590     0.4560     4.3690 hc         1 CP7       0.031700
     27 H152         3.1470     0.5610     3.4190 hc         1 CP7       0.031700
     28 H161         2.4990    -1.5570     5.0320 hc         1 CP7       0.004033
     29 H162         3.5940    -1.6630     3.6470 hc         1 CP7       0.004033
     30 H163         1.8940    -2.1210     3.4690 hc         1 CP7       0.004033
@<TRIPOS>BOND
     1     1     2 ar  
     2     1     3 ar  
     3     2     6 ar  
     4     2    14 1   
     5     3     4 ar  
     6     3    13 1   
     7     4     5 ar  
     8     4     7 1   
     9     5     6 ar  
    10     5    15 1   
    11     7     8 ar  
    12     7    12 ar  
    13     8     9 ar  
    14     8    17 1   
    15     9    10 ar  
    16     9    18 1   
    17    10    11 ar  
    18    10    19 1   
    19    11    12 ar  
    20    11    20 1   
    21    12    21 1   
    22    13    22 1   
    23    13    23 1   
    24    14    24 1   
    25    14    25 1   
    26    15    16 1   
    27    15    26 1   
    28    15    27 1   
    29    16    28 1   
    30    16    29 1   
    31    16    30 1   
@<TRIPOS>SUBSTRUCTURE
     1 CP7         1 TEMP              0 ****  ****    0 ROOT
