@<TRIPOS>MOLECULE
molecule
   46    49     1     0     0
SMALL
bcc


@<TRIPOS>ATOM
      1 C1           0.0000     0.0000     0.0000 ca         1 CP8       0.152600
      2 C2           1.3780     0.0000     0.0000 ca         1 CP8      -0.143300
      3 N3          -0.6820     0.0000    -1.2310 nh         1 CP8      -0.649900
      4 C4          -0.6600     0.0020     1.2460 ca         1 CP8      -0.154000
      5 C5           2.0850     0.0000     1.1970 ca         1 CP8      -0.035000
      6 C6           1.9820    -0.0030    -1.4010 c3         1 CP8      -0.135300
      7 S7           0.4700    -0.0100    -2.4360 s6         1 CP8       1.293900
      8 C8          -2.1350    -0.0010    -1.4180 c3         1 CP8       0.263100
      9 C9           0.0440     0.0040     2.4250 ca         1 CP8      -0.083000
     10 C10          1.4260     0.0030     2.4070 ca         1 CP8      -0.124300
     11 O11          0.2710    -1.2590    -3.0840 o          1 CP8      -0.610800
     12 O12          0.2640     1.2350    -3.0910 o          1 CP8      -0.610800
     13 C13          2.2040     0.0050     3.6970 c3         1 CP8       0.171400
     14 C14          2.4720    -1.4360     4.1360 c3         1 CP8       0.082000
     15 O15          3.4520     0.6730     3.5030 os         1 CP8      -0.392600
     16 N16          3.3900    -1.4310     5.2780 n          1 CP8      -0.479800
     17 C17          3.9900     0.9340     4.7970 c3         1 CP8       0.058400
     18 C18          3.5340    -2.6400     6.0910 c3         1 CP8       0.155300
     19 C19          4.1000    -0.3370     5.5900 c          1 CP8       0.672500
     20 C20          4.6360    -3.4970     5.5260 ca         1 CP8      -0.116300
     21 O21          4.8520    -0.3750     6.5400 o          1 CP8      -0.647500
     22 C22          5.9370    -3.3270     5.9630 ca         1 CP8      -0.110500
     23 C23          4.3470    -4.4570     4.5750 ca         1 CP8      -0.110500
     24 C24          6.9490    -4.1130     5.4430 ca         1 CP8      -0.132000
     25 C25          5.3600    -5.2410     4.0520 ca         1 CP8      -0.132000
     26 C26          6.6600    -5.0700     4.4890 ca         1 CP8      -0.122000
     27 H4          -1.7430     0.0030     1.2740 ha         1 CP8       0.140000
     28 H5           3.1680    -0.0010     1.1780 ha         1 CP8       0.157000
     29 H6C1         2.5650     0.8940    -1.5730 h1         1 CP8       0.117700
     30 H6C2         2.5700    -0.8970    -1.5670 h1         1 CP8       0.117700
     31 H8C1        -2.5590     0.8840    -0.9600 h1         1 CP8       0.047367
     32 H8C2        -2.5580    -0.8850    -0.9570 h1         1 CP8       0.047367
     33 H8C3        -2.3620    -0.0020    -2.4770 h1         1 CP8       0.047367
     34 H9          -0.4850     0.0060     3.3710 ha         1 CP8       0.136000
     35 H13          1.6380     0.5160     4.4660 h1         1 CP8       0.054700
     36 H141         2.9190    -1.9860     3.3160 h1         1 CP8       0.057700
     37 H142         1.5390    -1.9050     4.4250 h1         1 CP8       0.057700
     38 H171         4.9750     1.3730     4.6900 h1         1 CP8       0.081700
     39 H172         3.3400     1.6250     5.3200 h1         1 CP8       0.081700
     40 H181         3.7790    -2.3630     7.1100 h1         1 CP8       0.065700
     41 H182         2.6040    -3.1960     6.0820 h1         1 CP8       0.065700
     42 H22          6.1640    -2.5770     6.7110 ha         1 CP8       0.138000
     43 H23          3.3280    -4.5910     4.2330 ha         1 CP8       0.138000
     44 H24          7.9680    -3.9800     5.7850 ha         1 CP8       0.130500
     45 H25          5.1330    -5.9920     3.3060 ha         1 CP8       0.130500
     46 H26          7.4530    -5.6850     4.0810 ha         1 CP8       0.129000
@<TRIPOS>BOND
     1     1     2 ar
     2     1     3 1
     3     1     4 ar
     4     2     5 ar
     5     2     6 1
     6     3     7 1
     7     3     8 1
     8     4     9 ar
     9     4    27 1
    10     5    10 ar
    11     5    28 1
    12     6     7 1
    13     6    29 1
    14     6    30 1
    15     7    11 2
    16     7    12 2
    17     8    31 1
    18     8    32 1
    19     8    33 1
    20     9    10 ar
    21     9    34 1
    22    10    13 1
    23    13    14 1
    24    13    15 1
    25    13    35 1
    26    14    16 1
    27    14    36 1
    28    14    37 1
    29    15    17 1
    30    16    18 1
    31    16    19 1
    32    17    19 1
    33    17    38 1
    34    17    39 1
    35    18    20 1
    36    18    40 1
    37    18    41 1
    38    19    21 2
    39    20    22 ar
    40    20    23 ar
    41    22    24 ar
    42    22    42 1
    43    23    25 ar
    44    23    43 1
    45    24    26 ar
    46    24    44 1
    47    25    26 ar
    48    25    45 1
    49    26    46 1
@<TRIPOS>SUBSTRUCTURE
     1 CP8         1 TEMP              0 ****  ****    0 ROOT
