@<TRIPOS>MOLECULE
CP9
   43    47     1     0     0
SMALL
bcc


@<TRIPOS>ATOM
      1 S1          0.4800   -0.5280   -0.3070 ss        1 CP9     -0.059500
      2 C2          2.1770   -0.4050    0.1790 c         1 CP9      0.694100
      3 N3          2.2630   -0.2070    1.5720 n         1 CP9     -0.366000
      4 C4          1.0060   -0.0930    2.1890 ca        1 CP9      0.047600
      5 C5         -0.0810   -0.2650    1.2780 ca        1 CP9     -0.085100
      6 C6         -1.3910   -0.2050    1.7350 ca        1 CP9     -0.063000
      7 C7         -1.6350    0.0250    3.0880 ca        1 CP9     -0.148000
      8 C8         -0.5740    0.1980    3.9800 ca        1 CP9     -0.095000
      9 C9          0.7480    0.1430    3.5470 ca        1 CP9     -0.145000
     10 C10         3.5170   -0.0170    2.2560 c3        1 CP9      0.149300
     11 C11         3.9860    1.4080    2.3380 ca        1 CP9     -0.122300
     12 C12         4.0100    2.0800    3.5610 ca        1 CP9     -0.097000
     13 C13         4.4850    3.3860    3.6440 ca        1 CP9     -0.143000
     14 C14         4.9370    4.0500    2.4830 ca        1 CP9      0.023800
     15 C15         4.9070    3.3650    1.2480 ca        1 CP9     -0.143000
     16 C16         4.4380    2.0580    1.1850 ca        1 CP9     -0.097000
     17 N17         5.4210    5.3690    2.5550 na        1 CP9     -0.104400
     18 C18         4.8310    6.4770    3.2450 cc        1 CP9      0.434800
     19 N19         5.5160    7.6220    3.0570 nd        1 CP9     -0.548100
     20 C20         6.5930    7.2930    2.2160 ca        1 CP9     -0.050900
     21 C21         6.5410    5.8790    1.8830 ca        1 CP9     -0.041200
     22 C22         7.5250    5.3220    1.0580 ca        1 CP9     -0.243300
     23 C23         8.5120    6.2010    0.5970 ca        1 CP9      0.401200
     24 N24         8.5810    7.5250    0.8880 nb        1 CP9     -0.680000
     25 C25         7.6480    8.0650    1.6800 ca        1 CP9      0.460200
     26 C26         3.6000    6.3450    4.0690 c3        1 CP9     -0.118400
     27 O27         3.1680   -0.4900   -0.5580 o         1 CP9     -0.587500
     28 H6         -2.2280   -0.3390    1.0340 ha        1 CP9      0.146000
     29 H7         -2.6710    0.0730    3.4540 ha        1 CP9      0.141000
     30 H8         -0.7830    0.3820    5.0450 ha        1 CP9      0.138000
     31 H9          1.5730    0.2890    4.2590 ha        1 CP9      0.140000
     32 H101        4.2950   -0.6140    1.6920 h1        1 CP9      0.076200
     33 H102        3.4200   -0.4470    3.2940 h1        1 CP9      0.076200
     34 H12         3.6560    1.5770    4.4740 ha        1 CP9      0.149000
     35 H13         4.5090    3.8930    4.6210 ha        1 CP9      0.149000
     36 H15         5.2550    3.8640    0.3280 ha        1 CP9      0.149000
     37 H16         4.4160    1.5260    0.2180 ha        1 CP9      0.149000
     38 H22         7.5320    4.2590    0.7900 ha        1 CP9      0.150000
     39 H23         9.3190    5.8290   -0.0600 h4        1 CP9      0.024100
     40 H25         7.7360    9.1430    1.9000 h4        1 CP9      0.037100
     41 H261        3.8820    6.0900    5.1210 hc        1 CP9      0.067033
     42 H262        2.9330    5.5420    3.6660 hc        1 CP9      0.067033
     43 H263        3.0390    7.3130    4.0740 hc        1 CP9      0.067033
@<TRIPOS>BOND
     1    1    2 1
     2    1    5 1
     3    2    3 1
     4    2   27 2
     5    3    4 1
     6    3   10 1
     7    4    5 ar
     8    4    9 ar
     9    5    6 ar
    10    6    7 ar
    11    6   28 1
    12    7    8 ar
    13    7   29 1
    14    8    9 ar
    15    8   30 1
    16    9   31 1
    17   10   11 1
    18   10   32 1
    19   10   33 1
    20   11   12 ar
    21   11   16 ar
    22   12   13 ar
    23   12   34 1
    24   13   14 ar
    25   13   35 1
    26   14   15 ar
    27   14   17 1
    28   15   16 ar
    29   15   36 1
    30   16   37 1
    31   17   18 1
    32   17   21 1
    33   18   19 2
    34   18   26 1
    35   19   20 1
    36   20   21 ar
    37   20   25 ar
    38   21   22 ar
    39   22   23 ar
    40   22   38 1
    41   23   24 ar
    42   23   39 1
    43   24   25 ar
    44   25   40 1
    45   26   41 1
    46   26   42 1
    47   26   43 1
@<TRIPOS>SUBSTRUCTURE
     1 CP9         1 TEMP              0 ****  ****    0 ROOT
