@<TRIPOS>MOLECULE
CPA
   62    66     1     0     0
SMALL
bcc


@<TRIPOS>ATOM
      1 P          -0.5460   -0.1380    0.4920 p5        1 CPA      1.439800
      2 O1P         0.2900   -1.1140    1.2140 o         1 CPA     -0.826500
      3 O2P        -1.2560    1.0250    1.0570 o         1 CPA     -0.826500
      4 O5D        -0.8700    4.8890   -0.8040 oh        1 CPA     -0.625800
      5 C5X        -1.0910    3.5170   -1.0770 c3        1 CPA      0.097400
      6 C4X         0.1900    2.8130   -1.5250 c3        1 CPA      0.054100
      7 O4D         1.1970    3.8160   -1.8140 os        1 CPA     -0.422600
      8 C3X         0.7950    1.8570   -0.4640 c3        1 CPA      0.192100
      9 O3D         0.4400    0.5460   -0.6860 os        1 CPA     -0.551200
     10 C2X         2.3110    2.0690   -0.6330 c3        1 CPA     -0.147400
     11 C1X         2.4100    3.5220   -1.1310 c3        1 CPA      0.289500
     12 N1C         2.6000    4.4890   -0.0110 n         1 CPA     -0.338000
     13 CC2         3.9050    5.0760    0.1810 c         1 CPA      0.825900
     14 N3C         4.1180    5.9260    1.3030 nc        1 CPA     -0.666100
     15 CC4         3.0910    6.1480    2.1080 cd        1 CPA      0.602500
     16 CC5         1.7780    5.6270    1.9480 cd        1 CPA     -0.457600
     17 CC6         1.5950    4.7850    0.8460 cc        1 CPA      0.146600
     18 O2C         4.8230    4.8410   -0.6170 o         1 CPA     -0.540500
     19 N4C         3.3390    7.0210    3.2910 n4        1 CPA     -0.802600
     20 O5B        -1.5070   -0.9980   -0.5130 os        1 CPA     -0.560200
     21 C5B        -0.9000   -2.0110   -1.2610 c3        1 CPA      0.181400
     22 C4B        -1.1000   -3.3900   -0.6130 c3        1 CPA      0.066100
     23 O4B        -1.4040   -4.3400   -1.6510 os        1 CPA     -0.416600
     24 C3B         0.1370   -3.9030    0.1590 c3        1 CPA      0.141100
     25 O3B        -0.1280   -3.9950    1.5420 oh        1 CPA     -0.617800
     26 C2B         0.3850   -5.3140   -0.3810 c3        1 CPA     -0.125400
     27 C1B        -0.4420   -5.3990   -1.6810 c3        1 CPA      0.257800
     28 N9A         0.3470   -5.3080   -2.8980 na        1 CPA     -0.277000
     29 C8A         0.6840   -4.1500   -3.6370 cc        1 CPA      0.424700
     30 N7A         1.4000   -4.4040   -4.7440 nd        1 CPA     -0.563100
     31 C5A         1.5520   -5.7980   -4.7650 ca        1 CPA     -0.226200
     32 C6A         2.2040   -6.6950   -5.6750 ca        1 CPA      0.749200
     33 N6A         2.7960   -6.2090   -6.8170 nh        1 CPA     -0.957500
     34 N1A         2.1910   -8.0420   -5.4040 nb        1 CPA     -0.799000
     35 C2A         1.5290   -8.4510   -4.2860 ca        1 CPA      0.676900
     36 N3A         0.8670   -7.7340   -3.3520 nb        1 CPA     -0.731000
     37 C4A         0.8880   -6.3890   -3.6070 ca        1 CPA      0.452800
     38 HO5C       -0.5660    5.2990   -1.6230 ho        1 CPA      0.407000
     39 H51C       -1.4820    3.0790   -0.1120 h1        1 CPA      0.092700
     40 H52C       -1.8740    3.4070   -1.8740 h1        1 CPA      0.092700
     41 H3D         0.4760    2.1900    0.5690 h1        1 CPA      0.062700
     42 H21C        2.7090    1.3830   -1.4230 hc        1 CPA      0.090200
     43 H22C        2.8670    1.8730    0.3120 hc        1 CPA      0.090200
     44 H1D         3.2480    3.7080   -1.8650 h2        1 CPA      0.130700
     45 H5C         0.9420    5.8430    2.6210 ha        1 CPA      0.184000
     46 H6C         0.5860    4.3410    0.6380 h4        1 CPA      0.250000
     47 H41C        3.1520    6.4740    4.1370 hn        1 CPA      0.470467
     48 H42C        4.3090    7.3620    3.3080 hn        1 CPA      0.470467
     49 H51A        0.1960   -1.7850   -1.3840 h1        1 CPA      0.039700
     50 H52A       -1.4010   -2.0150   -2.2710 h1        1 CPA      0.039700
     51 H4B        -2.0050   -3.3720    0.0550 h1        1 CPA      0.096700
     52 H3B         1.0240   -3.2350   -0.0180 h1        1 CPA      0.071700
     53 HO3A        0.0320   -3.1120    1.9140 ho        1 CPA      0.458000
     54 H21A        0.0040   -6.0770    0.3440 hc        1 CPA      0.078200
     55 H22A        1.4720   -5.5000   -0.5430 hc        1 CPA      0.078200
     56 H1B        -1.0380   -6.3590   -1.7420 h2        1 CPA      0.102700
     57 H8A         0.3520   -3.1590   -3.2990 h5        1 CPA      0.082800
     58 H61A        3.3580   -6.8060   -7.3720 hn        1 CPA      0.439300
     59 H62A        2.9130   -5.2290   -6.8960 hn        1 CPA      0.439300
     60 H2A         1.5420   -9.5500   -4.1200 h5        1 CPA      0.047100
     61 H4C3        2.6940    7.8160    3.2450 hn        1 CPA      0.470467
     62 H4D         0.0240    2.2570   -2.4870 h1        1 CPA      0.095700
@<TRIPOS>BOND
     1    1    2 1
     2    1    3 1
     3    1    9 1
     4    1   20 1
     5    4    5 1
     6    4   38 1
     7    5    6 1
     8    5   39 1
     9    5   40 1
    10    6    7 1
    11    6    8 1
    12    6   62 1
    13    7   11 1
    14    8    9 1
    15    8   10 1
    16    8   41 1
    17   10   11 1
    18   10   42 1
    19   10   43 1
    20   11   12 1
    21   11   44 1
    22   12   13 1
    23   12   17 1
    24   13   14 1
    25   13   18 2
    26   14   15 2
    27   15   16 1
    28   15   19 1
    29   16   17 2
    30   16   45 1
    31   17   46 1
    32   19   47 1
    33   19   48 1
    34   19   61 1
    35   20   21 1
    36   21   22 1
    37   21   49 1
    38   21   50 1
    39   22   23 1
    40   22   24 1
    41   22   51 1
    42   23   27 1
    43   24   25 1
    44   24   26 1
    45   24   52 1
    46   25   53 1
    47   26   27 1
    48   26   54 1
    49   26   55 1
    50   27   28 1
    51   27   56 1
    52   28   29 1
    53   28   37 1
    54   29   30 2
    55   29   57 1
    56   30   31 1
    57   31   32 ar
    58   31   37 ar
    59   32   33 1
    60   32   34 ar
    61   33   58 1
    62   33   59 1
    63   34   35 ar
    64   35   36 ar
    65   35   60 1
    66   36   37 ar
@<TRIPOS>SUBSTRUCTURE
     1 CPA         1 TEMP              0 ****  ****    0 ROOT
