@<TRIPOS>MOLECULE
CPB
   48    51     1     0     0
SMALL
bcc


@<TRIPOS>ATOM
      1 C1         -0.1990   -0.2130    0.3100 c3        1 CPB      0.159100
      2 N1          1.2440   -0.1720    0.2380 n3        1 CPB     -0.737600
      3 C16         1.8610   -0.0270    1.5500 c3        1 CPB      0.165800
      4 C15         3.3840    0.0680    1.4860 c3        1 CPB     -0.080400
      5 C14         3.9580   -1.1220    0.7310 c3        1 CPB     -0.032400
      6 C13         3.3280   -1.2300   -0.6660 c3        1 CPB      0.157100
      7 C12         1.7920   -1.2790   -0.5310 c3        1 CPB      0.131800
      8 C8          5.4500   -1.1290    0.7020 ca        1 CPB     -0.162300
      9 C9          6.2430   -0.0530    0.2430 ca        1 CPB      0.229100
     10 O1          5.5390    1.0490   -0.2090 os        1 CPB     -0.215200
     11 C2          6.2640    2.1300   -0.6990 cc        1 CPB      0.175900
     12 C3          7.6090    2.1800   -0.7210 cd        1 CPB     -0.287200
     13 C4          8.4290    1.0690   -0.2270 c         1 CPB      0.595900
     14 O4          9.6650    1.1180   -0.2230 o         1 CPB     -0.522100
     15 C10         7.6520   -0.0820    0.2480 ca        1 CPB     -0.279600
     16 C5          8.2880   -1.2520    0.7210 ca        1 CPB      0.246100
     17 O5          9.6540   -1.2640    0.7140 oh        1 CPB     -0.446100
     18 C6          7.5430   -2.3440    1.1730 ca        1 CPB     -0.349000
     19 C7          6.1430   -2.2690    1.1560 ca        1 CPB      0.213100
     20 O7          5.3830   -3.3290    1.5930 oh        1 CPB     -0.493100
     21 C21         5.3620    3.1670   -1.2150 ca        1 CPB     -0.071800
     22 C22         5.3430    4.4670   -0.6850 ca        1 CPB      0.043400
     23 CL1         6.3300    4.8990    0.6280 cl        1 CPB     -0.076400
     24 C23         4.4950    5.4360   -1.2330 ca        1 CPB     -0.132000
     25 C24         3.6630    5.1090   -2.3010 ca        1 CPB     -0.104000
     26 C25         3.6690    3.8160   -2.8250 ca        1 CPB     -0.132000
     27 C26         4.5110    2.8490   -2.2830 ca        1 CPB     -0.089000
     28 O3          3.7160   -0.2070   -1.5560 oh        1 CPB     -0.599800
     29 H11        -0.5620    0.7130    0.8280 h1        1 CPB      0.032033
     30 H12        -0.6140   -0.2300   -0.7320 h1        1 CPB      0.032033
     31 H13        -0.5920   -1.1100    0.8650 h1        1 CPB      0.032033
     32 H161        1.5810   -0.8810    2.2350 h1        1 CPB      0.032200
     33 H162        1.4600    0.9210    2.0080 h1        1 CPB      0.032200
     34 H151        3.6850    1.0290    0.9960 hc        1 CPB      0.058200
     35 H152        3.7840    0.0810    2.5330 hc        1 CPB      0.058200
     36 H141        3.6180   -2.0500    1.2840 hc        1 CPB      0.075700
     37 H131        3.6770   -2.1760   -1.1680 h1        1 CPB      0.075700
     38 H121        1.5150   -2.2790   -0.0860 h1        1 CPB      0.040700
     39 H122        1.3520   -1.2220   -1.5670 h1        1 CPB      0.040700
     40 H31         8.1430    3.0590   -1.1110 ha        1 CPB      0.175000
     41 HO5         9.9520   -2.1200    1.0580 ho        1 CPB      0.420000
     42 H61         8.0460   -3.2510    1.5350 ha        1 CPB      0.142000
     43 HO7         5.9820   -4.0300    1.8890 ho        1 CPB      0.427000
     44 H231        4.4850    6.4550   -0.8170 ha        1 CPB      0.151000
     45 H241        2.9980    5.8750   -2.7290 ha        1 CPB      0.141000
     46 H251        3.0070    3.5570   -3.6650 ha        1 CPB      0.144000
     47 H261        4.5170    1.8220   -2.6890 ha        1 CPB      0.165000
     48 HO3         3.5010    0.6390   -1.1380 ho        1 CPB      0.416000
@<TRIPOS>BOND
     1    1    2 1   
     2    1   29 1   
     3    1   30 1   
     4    1   31 1   
     5    2    3 1   
     6    2    7 1   
     7    3    4 1   
     8    3   32 1   
     9    3   33 1   
    10    4    5 1   
    11    4   34 1   
    12    4   35 1   
    13    5    6 1   
    14    5    8 1   
    15    5   36 1   
    16    6    7 1   
    17    6   28 1   
    18    6   37 1   
    19    7   38 1   
    20    7   39 1   
    21    8    9 ar  
    22    8   19 ar  
    23    9   10 1   
    24    9   15 ar  
    25   10   11 1   
    26   11   12 2   
    27   11   21 1   
    28   12   13 1   
    29   12   40 1   
    30   13   14 2   
    31   13   15 1   
    32   15   16 ar  
    33   16   17 1   
    34   16   18 ar  
    35   17   41 1   
    36   18   19 ar  
    37   18   42 1   
    38   19   20 1   
    39   20   43 1   
    40   21   22 ar  
    41   21   27 ar  
    42   22   23 1   
    43   22   24 ar  
    44   24   25 ar  
    45   24   44 1   
    46   25   26 ar  
    47   25   45 1   
    48   26   27 ar  
    49   26   46 1   
    50   27   47 1   
    51   28   48 1   
@<TRIPOS>SUBSTRUCTURE
     1 CPB         1 TEMP              0 ****  ****    0 ROOT
