@<TRIPOS>MOLECULE
CPF
   41    44     1     0     0
SMALL
bcc


@<TRIPOS>ATOM
      1 O2           0.0000     0.0000     0.0000 o          1 CPF      -0.874300
      2 C3           1.3480     0.0000     0.0000 c          1 CPF       0.982800
      3 O1           1.9560     0.0000     1.0540 o          1 CPF      -0.874300
      4 C2           2.0840    -0.0000    -1.2720 cc         1 CPF      -0.229400
      5 C1           3.4640    -0.0000    -1.2840 cd         1 CPF      -0.135000
      6 N1           4.1660    -0.0000    -2.4240 na         1 CPF       0.000200
      7 C10          3.5710    -0.0000    -3.6690 ca         1 CPF       0.033600
      8 C9           4.3470    -0.0010    -4.8220 ca         1 CPF      -0.217000
      9 C8           3.7340    -0.0020    -6.0640 ca         1 CPF       0.019600
     10 N2           4.5130    -0.0020    -7.2190 nh         1 CPF      -0.393000
     11 C17          5.3780     1.1850    -7.2720 c3         1 CPF       0.148800
     12 C16          6.1560     1.1860    -8.5900 c3         1 CPF       0.143800
     13 N3           6.9530    -0.0450    -8.6860 n7         1 CPF      -0.588200
     14 C15          6.0890    -1.2320    -8.6330 c3         1 CPF       0.143800
     15 C14          5.3100    -1.2340    -7.3150 c3         1 CPF       0.148800
     16 C7           2.3420    -0.0010    -6.1690 ca         1 CPF       0.048900
     17 F1           1.7580    -0.0010    -7.3870 f          1 CPF      -0.133900
     18 C6           1.5650    -0.0010    -5.0440 ca         1 CPF      -0.038000
     19 C5           2.1690     0.0000    -3.7840 ca         1 CPF      -0.188600
     20 C4           1.3590    -0.0050    -2.5540 c          1 CPF       0.610900
     21 O3           0.1410    -0.0100    -2.5950 o          1 CPF      -0.521100
     22 C11          5.6290     0.0000    -2.3470 cx         1 CPF       0.013500
     23 C12          6.2940    -1.1060    -1.5250 cx         1 CPF      -0.091400
     24 C13          6.2650     0.3290    -0.9940 cx         1 CPF      -0.091400
     25 H1           3.9960     0.0000    -0.3410 h4         1 CPF       0.162000
     26 H9           5.4250    -0.0890    -4.7500 ha         1 CPF       0.126000
     27 H171         4.7670     2.0780    -7.2140 h1         1 CPF       0.019200
     28 H172         6.0740     1.1620    -6.4420 h1         1 CPF       0.019200
     29 H161         5.4610     1.2310    -9.4190 h1         1 CPF       0.008700
     30 H162         6.8160     2.0450    -8.6170 h1         1 CPF       0.008700
     31 HN3          7.4660    -0.0440    -9.5450 hn         1 CPF       0.245800
     32 H151         5.3920    -1.2090    -9.4630 h1         1 CPF       0.008700
     33 H152         6.6990    -2.1250    -8.6920 h1         1 CPF       0.008700
     34 H141         4.6500    -2.0930    -7.2880 h1         1 CPF       0.019200
     35 H142         6.0050    -1.2800    -6.4860 h1         1 CPF       0.019200
     36 H6           0.4850    -0.0010    -5.1290 ha         1 CPF       0.136000
     37 H11          6.1990     0.3300    -3.2070 h1         1 CPF       0.074700
     38 H121         7.2530    -1.4500    -1.8920 hc         1 CPF       0.056950
     39 H122         5.6160    -1.7980    -1.0380 hc         1 CPF       0.056950
     40 H131         7.2070     0.8620    -1.0380 hc         1 CPF       0.056950
     41 H132         5.5710     0.5140    -0.1840 hc         1 CPF       0.056950
@<TRIPOS>BOND
     1     1     2 1   
     2     2     3 1   
     3     2     4 1   
     4     4     5 2   
     5     4    20 1   
     6     5     6 1   
     7     5    25 1   
     8     6     7 1   
     9     6    22 1   
    10     7     8 ar  
    11     7    19 ar  
    12     8     9 ar  
    13     8    26 1   
    14     9    10 1   
    15     9    16 ar  
    16    10    11 1   
    17    10    15 1   
    18    11    12 1   
    19    11    27 1   
    20    11    28 1   
    21    12    13 1   
    22    12    29 1   
    23    12    30 1   
    24    13    14 1   
    25    13    31 1   
    26    14    15 1   
    27    14    32 1   
    28    14    33 1   
    29    15    34 1   
    30    15    35 1   
    31    16    17 1   
    32    16    18 ar  
    33    18    19 ar  
    34    18    36 1   
    35    19    20 1   
    36    20    21 2   
    37    22    23 1   
    38    22    24 1   
    39    22    37 1   
    40    23    24 1   
    41    23    38 1   
    42    23    39 1   
    43    24    40 1   
    44    24    41 1   
@<TRIPOS>SUBSTRUCTURE
     1 CPF         1 TEMP              0 ****  ****    0 ROOT
