@<TRIPOS>MOLECULE
molecule
   37    39     1     0     0
SMALL
bcc


@<TRIPOS>ATOM
      1 PA           0.0000     0.0000     0.0000 p5         1 CPG       1.162900
      2 O1A          1.6100     0.0000     0.0000 o          1 CPG      -0.738167
      3 O2A         -0.5360     0.0000     1.5180 o          1 CPG      -0.738167
      4 O3A         -0.4930    -1.2080    -0.6960 o          1 CPG      -0.738167
      5 O5'         -0.5370     1.3140    -0.7590 os         1 CPG      -0.524200
      6 C5'         -1.9630     1.2570    -0.7270 c3         1 CPG       0.162400
      7 C4'         -2.5400     2.4830    -1.4350 c3         1 CPG       0.127100
      8 O4'         -2.1300     2.5020    -2.8200 os         1 CPG      -0.371600
      9 C3'         -4.0810     2.4060    -1.4810 c3         1 CPG       0.090100
     10 O3'         -4.6540     3.1890    -0.4320 oh         1 CPG      -0.581800
     11 C2'         -4.4470     2.9990    -2.8620 c3         1 CPG       0.080100
     12 O2'         -5.2580     4.1650    -2.7070 oh         1 CPG      -0.581800
     13 C1'         -3.0820     3.3590    -3.4860 c3         1 CPG       0.238800
     14 N9          -3.0920     3.0900    -4.9260 na         1 CPG      -0.180900
     15 C8          -2.7670     1.9080    -5.5260 cc         1 CPG       0.473400
     16 N7          -2.8850     2.0230    -6.8170 nd         1 CPG      -0.636000
     17 C5          -3.2920     3.2800    -7.1210 cd         1 CPG       0.220800
     18 C6          -3.5780     3.9580    -8.3280 c          1 CPG       0.649000
     19 O6          -3.4720     3.3910    -9.4030 o          1 CPG      -0.616500
     20 N1          -3.9760     5.2470    -8.2610 ns         1 CPG      -0.475400
     21 C2          -4.0840     5.8710    -7.0560 cd         1 CPG       0.268800
     22 N2          -4.4850     7.1840    -7.0190 nz         1 CPG      -0.676600
     23 N3          -3.8210     5.2530    -5.9270 nc         1 CPG      -0.596100
     24 C4          -3.4280     3.9740    -5.9140 cc         1 CPG       0.065800
     25 H5'1        -2.3000     1.2440     0.3030 h1         1 CPG       0.058700
     26 H5'2        -2.2990     0.3580    -1.2290 h1         1 CPG       0.058700
     27 H4'         -2.2260     3.3930    -0.9400 h1         1 CPG       0.077700
     28 H3'         -4.4090     1.3760    -1.4150 h1         1 CPG       0.061700
     29 HO3'        -5.2270     2.6490     0.0870 ho         1 CPG       0.401000
     30 H2'         -4.9530     2.2560    -3.4670 h1         1 CPG       0.049700
     31 HO2'        -6.1570     3.9500    -2.8980 ho         1 CPG       0.396000
     32 H1'         -2.8460     4.3990    -3.2940 h2         1 CPG       0.093700
     33 H8          -2.4570     1.0100    -5.0070 h5         1 CPG       0.109100
     34 HN1         -4.1930     5.7450    -9.1020 hn         1 CPG       0.312500
     35 HN21        -4.4330     7.5220    -6.0780 hn         1 CPG       0.433467
     36 HN22        -5.4270     7.2540    -7.3470 hn         1 CPG       0.433467
     37 H23         -3.8860     7.7320    -7.6040 hn         1 CPG       0.433467
@<TRIPOS>BOND
     1     1     2 1
     2     1     3 1
     3     1     4 1
     4     1     5 1
     5     5     6 1
     6     6     7 1
     7     6    25 1
     8     6    26 1
     9     7     8 1
    10     7     9 1
    11     7    27 1
    12     8    13 1
    13     9    10 1
    14     9    11 1
    15     9    28 1
    16    10    29 1
    17    11    12 1
    18    11    13 1
    19    11    30 1
    20    12    31 1
    21    13    14 1
    22    13    32 1
    23    14    15 1
    24    14    24 1
    25    15    16 2
    26    15    33 1
    27    16    17 1
    28    17    18 1
    29    17    24 2
    30    18    19 2
    31    18    20 1
    32    20    21 1
    33    20    34 1
    34    21    22 1
    35    21    23 2
    36    22    35 1
    37    22    36 1
    38    23    24 1
    39    37    22 1
@<TRIPOS>SUBSTRUCTURE
     1 CPG         1 TEMP              0 ****  ****    0 ROOT
