@<TRIPOS>MOLECULE
CPG
   36    38     1     0     0
SMALL
bcc


@<TRIPOS>ATOM
      1 PA          0.7620   -0.2220   -1.3180 p5        1 CPG      1.335900
      2 O1A         2.0750    0.2800   -0.7950 o         1 CPG     -0.929500
      3 O2A         0.1660   -1.4520   -0.7120 o         1 CPG     -0.929500
      4 O3A         0.5910   -0.0440   -2.8160 o         1 CPG     -0.929500
      5 O5'        -0.3190    1.0550   -0.8110 os        1 CPG     -0.553200
      6 C5'         0.0530    2.2940   -1.2470 c3        1 CPG      0.229400
      7 C4'        -0.7980    2.7140   -2.4720 c3        1 CPG      0.051100
      8 O4'        -1.1130    4.1290   -2.4030 os        1 CPG     -0.431600
      9 C3'        -0.1130    2.4390   -3.8240 c3        1 CPG      0.131100
     10 O3'        -0.8240    1.4730   -4.5620 oh        1 CPG     -0.685800
     11 C2'        -0.1480    3.7780   -4.5930 c3        1 CPG      0.103100
     12 O2'        -1.0570    3.8300   -5.6720 oh        1 CPG     -0.617800
     13 C1'        -0.6080    4.8270   -3.5250 c3        1 CPG      0.213800
     14 N9          0.4580    5.7320   -3.0960 na        1 CPG     -0.178900
     15 C8          1.4520    5.4940   -2.1240 cc        1 CPG      0.447400
     16 N7          2.2570    6.5590   -1.9110 nd        1 CPG     -0.629000
     17 C5          1.7740    7.5490   -2.7650 cd        1 CPG      0.194800
     18 C6          2.2280    8.9030   -2.9930 c         1 CPG      0.645000
     19 O6          3.1760    9.5100   -2.4630 o         1 CPG     -0.643500
     20 N1          1.4630    9.6190   -3.9500 n         1 CPG     -0.497400
     21 C2          0.3760    9.0400   -4.6380 cd        1 CPG      0.594800
     22 N2         -0.2430    9.8710   -5.6400 nh        1 CPG     -0.866800
     23 N3         -0.0790    7.7940   -4.4380 nc        1 CPG     -0.615100
     24 C4          0.6400    7.0510   -3.5130 cc        1 CPG      0.057800
     25 H5'1       -0.1410    3.0600   -0.4380 h1        1 CPG     -0.001800
     26 H5'2        1.1480    2.3180   -1.5170 h1        1 CPG     -0.001800
     27 H4'        -1.7930    2.1930   -2.4240 h1        1 CPG      0.082700
     28 H3'         0.9490    2.0940   -3.6740 h1        1 CPG      0.118700
     29 HO3'       -0.5640    0.6040   -4.1660 ho        1 CPG      0.517000
     30 H2'         0.8540    4.0290   -5.0300 h1        1 CPG      0.068700
     31 HO2'       -1.6690    3.0870   -5.5800 ho        1 CPG      0.432000
     32 H1'        -1.4490    5.4670   -3.9250 h2        1 CPG      0.086700
     33 H8          1.5130    4.5140   -1.6130 h5        1 CPG      0.116100
     34 HN1         1.7710   10.5310   -4.1990 hn        1 CPG      0.322500
     35 HN21       -0.8450    9.3300   -6.2330 hn        1 CPG      0.382300
     36 HN22       -0.7610   10.6100   -5.2050 hn        1 CPG      0.382300
@<TRIPOS>BOND
     1    1    2 1   
     2    1    3 1   
     3    1    4 1   
     4    1    5 1   
     5    5    6 1   
     6    6    7 1   
     7    6   25 1   
     8    6   26 1   
     9    7    8 1   
    10    7    9 1   
    11    7   27 1   
    12    8   13 1   
    13    9   10 1   
    14    9   11 1   
    15    9   28 1   
    16   10   29 1   
    17   11   12 1   
    18   11   13 1   
    19   11   30 1   
    20   12   31 1   
    21   13   14 1   
    22   13   32 1   
    23   14   15 1   
    24   14   24 1   
    25   15   16 2   
    26   15   33 1   
    27   16   17 1   
    28   17   18 1   
    29   17   24 2   
    30   18   19 2   
    31   18   20 1   
    32   20   21 1   
    33   20   34 1   
    34   21   22 1   
    35   21   23 2   
    36   22   35 1   
    37   22   36 1   
    38   23   24 1   
@<TRIPOS>SUBSTRUCTURE
     1 CPG         1 TEMP              0 ****  ****    0 ROOT
