@<TRIPOS>MOLECULE
CPH
   54    56     1     0     0
SMALL
bcc


@<TRIPOS>ATOM
      1 C1         -0.8400   -0.5040    0.3190 c         1 CPH      0.574700
      2 O1         -0.9000   -0.5330   -0.9260 o         1 CPH     -0.598100
      3 C2          0.0020   -1.5730    0.9990 c3        1 CPH      0.062100
      4 C3          0.6070   -1.0650    2.3070 c3        1 CPH     -0.038700
      5 C4         -0.5160   -0.5840    3.2070 c3        1 CPH     -0.052100
      6 C5         -3.4470    3.3340    3.6440 ca        1 CPH     -0.271000
      7 C6         -4.2790    4.3040    3.1080 ca        1 CPH      0.190100
      8 C7         -4.5710    4.3500    1.7180 ca        1 CPH     -0.145300
      9 C8         -3.9750    3.3970    0.8890 ca        1 CPH      0.200100
     10 O8         -4.2850    3.5220   -0.4420 oh        1 CPH     -0.495100
     11 C9         -2.3810    1.4480    0.5890 ca        1 CPH      0.269100
     12 O9         -2.6080    1.5830   -0.7480 oh        1 CPH     -0.527100
     13 C1'         1.4290   -2.1760    2.9740 c3        1 CPH      0.048100
     14 O1'         0.5110   -3.1340    3.4940 os        1 CPH     -0.403600
     15 C10        -1.9840    1.3860    3.3520 ca        1 CPH     -0.183000
     16 C2'         2.3100   -1.5910    4.0630 c         1 CPH      0.510100
     17 O2'         1.9700   -1.4970    5.2440 o         1 CPH     -0.498100
     18 C3'         3.6780   -1.1250    3.5990 c3        1 CPH      0.005100
     19 O3'         4.2590   -0.2260    4.5210 oh        1 CPH     -0.585800
     20 C4'         4.6150   -2.3390    3.3870 c3        1 CPH      0.119100
     21 O4'         5.6350   -2.3250    4.3680 oh        1 CPH     -0.592800
     22 C4A        -1.3610    0.4560    2.5610 ca        1 CPH      0.012700
     23 C5'         5.1880   -2.3430    1.9840 c3        1 CPH     -0.132100
     24 C5A        -2.8420    2.3780    2.8010 ca        1 CPH      0.082000
     25 C8A        -3.0800    2.4060    1.4010 ca        1 CPH     -0.167000
     26 C9A        -1.5420    0.4730    1.1420 ca        1 CPH     -0.296600
     27 CC7        -5.4720    5.3900    1.1760 c3        1 CPH     -0.033800
     28 O6         -4.8810    5.2650    3.8830 oh        1 CPH     -0.487100
     29 O2          1.0720   -1.9840    0.1620 oh        1 CPH     -0.605800
     30 CME         1.1400   -4.3300    3.9320 c3        1 CPH      0.107700
     31 H2         -0.6620   -2.4630    1.2100 h1        1 CPH      0.082700
     32 H3          1.3100   -0.2170    2.0750 hc        1 CPH      0.075700
     33 H4         -1.1700   -1.4590    3.4850 hc        1 CPH      0.083200
     34 H4A        -0.0710   -0.1950    4.1640 hc        1 CPH      0.083200
     35 H5         -3.2460    3.3000    4.7240 ha        1 CPH      0.143000
     36 HO8        -4.2660    2.6510   -0.8650 ho        1 CPH      0.445000
     37 HO9        -2.0690    0.9680   -1.2740 ho        1 CPH      0.478000
     38 H1'         2.0880   -2.6660    2.1970 h1        1 CPH      0.081700
     39 H10        -1.8310    1.3820    4.4430 ha        1 CPH      0.145000
     40 H3'         3.5720   -0.5280    2.6480 h1        1 CPH      0.101700
     41 HO3'        4.2090   -0.6370    5.3970 ho        1 CPH      0.428000
     42 H4'         4.0620   -3.3020    3.5850 h1        1 CPH      0.073700
     43 HO4'        6.1410   -1.5090    4.2480 ho        1 CPH      0.416000
     44 H5'         5.8980   -3.1980    1.8710 hc        1 CPH      0.052033
     45 H5'A        4.3680   -2.4490    1.2350 hc        1 CPH      0.052033
     46 H5'B        5.7410   -1.3940    1.7840 hc        1 CPH      0.052033
     47 HC7        -4.8800    6.2970    0.8950 hc        1 CPH      0.052367
     48 HC7A       -6.2330    5.6880    1.9400 hc        1 CPH      0.052367
     49 HC7B       -5.9970    5.0180    0.2610 hc        1 CPH      0.052367
     50 HO6        -4.6190    5.1150    4.8040 ho        1 CPH      0.425000
     51 HO2         0.7340   -2.0220   -0.7460 ho        1 CPH      0.431000
     52 HME         1.8660   -4.1110    4.7540 h1        1 CPH      0.042033
     53 HMEA        0.2960   -4.9590    4.3090 h1        1 CPH      0.042033
     54 HMEB        1.6600   -4.8350    3.0800 h1        1 CPH      0.042033
@<TRIPOS>BOND
     1    1    2 2   
     2    1    3 1   
     3    1   26 1   
     4    3    4 1   
     5    3   29 1   
     6    3   31 1   
     7    4    5 1   
     8    4   13 1   
     9    4   32 1   
    10    5   22 1   
    11    5   33 1   
    12    5   34 1   
    13    6    7 ar  
    14    6   24 ar  
    15    6   35 1   
    16    7    8 ar  
    17    7   28 1   
    18    8    9 ar  
    19    8   27 1   
    20    9   10 1   
    21    9   25 ar  
    22   10   36 1   
    23   11   12 1   
    24   11   25 ar  
    25   11   26 ar  
    26   12   37 1   
    27   13   14 1   
    28   13   16 1   
    29   13   38 1   
    30   14   30 1   
    31   15   22 ar  
    32   15   24 ar  
    33   15   39 1   
    34   16   17 2   
    35   16   18 1   
    36   18   19 1   
    37   18   20 1   
    38   18   40 1   
    39   19   41 1   
    40   20   21 1   
    41   20   23 1   
    42   20   42 1   
    43   21   43 1   
    44   22   26 ar  
    45   23   44 1   
    46   23   45 1   
    47   23   46 1   
    48   24   25 ar  
    49   27   47 1   
    50   27   48 1   
    51   27   49 1   
    52   28   50 1   
    53   29   51 1   
    54   30   52 1   
    55   30   53 1   
    56   30   54 1   
@<TRIPOS>SUBSTRUCTURE
     1 CPH         1 TEMP              0 ****  ****    0 ROOT
