@<TRIPOS>MOLECULE
molecule
   54    56     1     0     0
SMALL
bcc


@<TRIPOS>ATOM
      1 C1           0.0000     0.0000     0.0000 c          1 CPH       0.588700
      2 O1          -0.6270    -0.7050    -0.7620 o          1 CPH      -0.517100
      3 C2           1.5140     0.0000     0.0000 c3         1 CPH       0.059100
      4 C3           1.9740     0.0000     1.4640 c3         1 CPH      -0.069700
      5 C4           1.5290     1.2980     2.1330 c3         1 CPH      -0.027100
      6 C5          -2.6290     3.3890     3.6870 ca         1 CPH      -0.197000
      7 C6          -3.9870     3.6030     3.5720 ca         1 CPH       0.149100
      8 C7          -4.7220     2.9970     2.5520 ca         1 CPH      -0.155300
      9 C8          -4.1050     2.1780     1.6290 ca         1 CPH       0.154100
     10 O8          -4.8320     1.5940     0.6420 oh         1 CPH      -0.495100
     11 C9          -2.0610     1.0980     0.8180 ca         1 CPH       0.193100
     12 O9          -2.7530     0.4920    -0.1750 oh         1 CPH      -0.485100
     13 C1'          1.3490    -1.1910     2.1950 c3         1 CPH       0.043100
     14 O1'         -0.0670    -1.0170     2.2640 os         1 CPH      -0.386600
     15 C10         -0.5880     2.3190     2.8730 ca         1 CPH      -0.147000
     16 C2'          1.9140    -1.2760     3.5890 c          1 CPH       0.523100
     17 O2'          1.2420    -0.9410     4.5350 o          1 CPH      -0.445100
     18 C3'          3.3180    -1.7790     3.8030 c3         1 CPH       0.058100
     19 O3'          3.7420    -1.4600     5.1310 oh         1 CPH      -0.560800
     20 C4'          3.3510    -3.2970     3.6100 c3         1 CPH       0.143100
     21 O4'          2.3880    -3.9080     4.4720 oh         1 CPH      -0.585800
     22 C4A          0.0450     1.5080     1.9860 ca         1 CPH       0.011700
     23 C5'          4.7470    -3.8250     3.9490 c3         1 CPH      -0.129100
     24 C5A         -1.9740     2.5510     2.7740 ca         1 CPH       0.033000
     25 C8A         -2.7180     1.9430     1.7280 ca         1 CPH      -0.107000
     26 C9A         -0.6840     0.8880     0.9490 ca         1 CPH      -0.168600
     27 CC7         -6.2050     3.2480     2.4480 c3         1 CPH      -0.042800
     28 O6          -4.6150     4.4150     4.4590 oh         1 CPH      -0.515100
     29 O2           2.0000     1.1700    -0.6620 oh         1 CPH      -0.586800
     30 CME         -0.8030    -2.2420     2.2770 c3         1 CPH       0.115700
     31 H2           1.8810    -0.8890    -0.4980 h1         1 CPH       0.052700
     32 H3           3.0540    -0.0730     1.5020 hc         1 CPH       0.059700
     33 H4           1.7770     1.2550     3.1870 hc         1 CPH       0.066700
     34 H4A          2.0510     2.1290     1.6740 hc         1 CPH       0.066700
     35 H5          -2.0700     3.8650     4.4830 ha         1 CPH       0.143000
     36 HO8         -5.1290     2.2550     0.0380 ho         1 CPH       0.417000
     37 HO9         -2.7360     1.0340    -0.9460 ho         1 CPH       0.423000
     38 H1'          1.5750    -2.1030     1.6570 h1         1 CPH       0.052700
     39 H10         -0.0180     2.8070     3.6550 ha         1 CPH       0.137000
     40 H3'          3.9830    -1.3100     3.0890 h1         1 CPH       0.046700
     41 HO3'         4.4850    -0.8810     5.0920 ho         1 CPH       0.398000
     42 H4'          3.1160    -3.5350     2.5800 h1         1 CPH       0.030700
     43 HO4'         2.4810    -4.8450     4.4320 ho         1 CPH       0.405000
     44 H5'          4.8450    -4.8420     3.5880 hc         1 CPH       0.047367
     45 H5'A         4.8890    -3.8060     5.0220 hc         1 CPH       0.047367
     46 H5'B         5.4940    -3.1990     3.4750 hc         1 CPH       0.047367
     47 HC7         -6.3940     3.9720     1.6650 hc         1 CPH       0.049033
     48 HC7A        -6.7130     2.3210     2.2140 hc         1 CPH       0.049033
     49 HC7B        -6.5720     3.6330     3.3920 hc         1 CPH       0.049033
     50 HO6         -4.4970     4.0780     5.3320 ho         1 CPH       0.425000
     51 HO2          2.4390     0.9210    -1.4580 ho         1 CPH       0.409000
     52 HME         -1.8540    -2.0340     2.1150 h1         1 CPH       0.041700
     53 HMEA        -0.4380    -2.8910     1.4910 h1         1 CPH       0.041700
     54 HMEB        -0.6750    -2.7300     3.2360 h1         1 CPH       0.041700
@<TRIPOS>BOND
     1     2     1 2
     2    26     1 1
     3     1     3 1
     4     3    29 1
     5     3     4 1
     6     3    31 1
     7     4     5 1
     8     4    13 1
     9     4    32 1
    10    22     5 1
    11     5    33 1
    12     5    34 1
    13     7     6 ar
    14     6    24 ar
    15     6    35 1
    16     8     7 ar
    17    28     7 1
    18    27     8 1
    19     8     9 ar
    20    10     9 1
    21     9    25 ar
    22    10    36 1
    23    12    11 1
    24    25    11 ar
    25    11    26 ar
    26    12    37 1
    27    16    13 1
    28    13    14 1
    29    13    38 1
    30    14    30 1
    31    24    15 ar
    32    15    22 ar
    33    15    39 1
    34    17    16 2
    35    16    18 1
    36    19    18 1
    37    18    20 1
    38    18    40 1
    39    19    41 1
    40    21    20 1
    41    20    23 1
    42    20    42 1
    43    21    43 1
    44    26    22 ar
    45    23    44 1
    46    23    45 1
    47    23    46 1
    48    25    24 ar
    49    27    47 1
    50    27    48 1
    51    27    49 1
    52    28    50 1
    53    29    51 1
    54    30    52 1
    55    30    53 1
    56    30    54 1
@<TRIPOS>SUBSTRUCTURE
     1 CPH         1 TEMP              0 ****  ****    0 ROOT
