@<TRIPOS>MOLECULE
molecule
   52    53     1     0     0
SMALL
bcc


@<TRIPOS>ATOM
      1 O31          0.0000     0.0000     0.0000 o          1 CPJ      -0.815300
      2 C29          1.3420     0.0000     0.0000 c          1 CPJ       0.920100
      3 O30          1.9460    -0.0010    -1.0470 o          1 CPJ      -0.815300
      4 C26          2.0960     0.0000     1.3050 c3         1 CPJ       0.205100
      5 O27          3.4920     0.1250     1.0450 os         1 CPJ      -0.363600
      6 C28          4.1360     0.3520     2.2990 c3         1 CPJ       0.099400
      7 C32          1.6310     1.1840     2.1580 c3         1 CPJ      -0.142100
      8 O25          1.8280    -1.2160     2.0010 os         1 CPJ      -0.363600
      9 C24          2.3660    -1.0750     3.3180 c3         1 CPJ       0.099400
     10 C23          3.8770    -0.8450     3.2210 c3         1 CPJ       0.106100
     11 O22          4.5150    -2.0280     2.6720 os         1 CPJ      -0.429400
     12 C20          4.9580    -2.9960     3.4950 c          1 CPJ       0.756100
     13 O21          4.8230    -2.8810     4.6980 o          1 CPJ      -0.624000
     14 N17          5.5510    -4.0950     2.9870 ns         1 CPJ      -0.576900
     15 C16          6.0320    -5.1490     3.8830 c3         1 CPJ       0.115000
     16 C15          6.6580    -6.2740     3.0560 c3         1 CPJ       0.115000
     17 N14          7.1400    -7.3290     3.9520 ns         1 CPJ      -0.576900
     18 C12          7.7330    -8.4260     3.4430 c          1 CPJ       0.756100
     19 O13          7.8680    -8.5420     2.2410 o          1 CPJ      -0.624000
     20 O11          8.1750    -9.3960     4.2660 os         1 CPJ      -0.429400
     21 C3           8.8130   -10.5790     3.7180 c3         1 CPJ       0.106100
     22 C2           9.8380   -11.1210     4.7210 c3         1 CPJ       0.099400
     23 O1          10.3640   -12.3560     4.2290 os         1 CPJ      -0.363600
     24 C4           7.7570   -11.6580     3.4590 c3         1 CPJ       0.099400
     25 O5           8.4100   -12.8600     3.0440 os         1 CPJ      -0.363600
     26 C6           9.2690   -13.2610     4.1100 c3         1 CPJ       0.205100
     27 C10          8.4780   -13.2770     5.4200 c3         1 CPJ      -0.142100
     28 C7           9.7950   -14.6460     3.8290 c          1 CPJ       0.920100
     29 O8           8.9500   -15.6860     3.7760 o          1 CPJ      -0.815300
     30 O9          10.9780   -14.8170     3.6510 o          1 CPJ      -0.815300
     31 H281         5.2030     0.4630     2.1420 h1         1 CPJ       0.049075
     32 H282         3.7370     1.2510     2.7530 h1         1 CPJ       0.049075
     33 H321         0.5760     1.0770     2.3790 hc         1 CPJ       0.041033
     34 H322         1.7950     2.1060     1.6140 hc         1 CPJ       0.041033
     35 H323         2.1940     1.2050     3.0830 hc         1 CPJ       0.041033
     36 H241         2.1740    -1.9780     3.8850 h1         1 CPJ       0.049075
     37 H242         1.9020    -0.2270     3.8090 h1         1 CPJ       0.049075
     38 H23          4.2750    -0.6350     4.2070 h1         1 CPJ       0.070200
     39 H17          5.6670    -4.1880     1.9970 hn         1 CPJ       0.326500
     40 H161         6.7750    -4.7400     4.5570 h1         1 CPJ       0.055950
     41 H162         5.2020    -5.5420     4.4570 h1         1 CPJ       0.055950
     42 H151         5.9150    -6.6840     2.3820 h1         1 CPJ       0.055950
     43 H152         7.4890    -5.8810     2.4820 h1         1 CPJ       0.055950
     44 H14          7.0360    -7.2300     4.9420 hn         1 CPJ       0.326500
     45 H3           9.3130   -10.3310     2.7890 h1         1 CPJ       0.070200
     46 H21          9.3550   -11.2880     5.6760 h1         1 CPJ       0.049075
     47 H22         10.6430   -10.4050     4.8360 h1         1 CPJ       0.049075
     48 H41          7.0850   -11.3250     2.6780 h1         1 CPJ       0.049075
     49 H42          7.2000   -11.8450     4.3690 h1         1 CPJ       0.049075
     50 H101         8.1320   -12.2750     5.6450 hc         1 CPJ       0.041033
     51 H102         7.6270   -13.9390     5.3200 hc         1 CPJ       0.041033
     52 H103         9.1160   -13.6270     6.2230 hc         1 CPJ       0.041033
@<TRIPOS>BOND
     1     1     2 1
     2     2     3 1
     3     2     4 1
     4     4     5 1
     5     4     7 1
     6     4     8 1
     7     5     6 1
     8     6    10 1
     9     6    31 1
    10     6    32 1
    11     7    33 1
    12     7    34 1
    13     7    35 1
    14     8     9 1
    15     9    10 1
    16     9    36 1
    17     9    37 1
    18    10    11 1
    19    10    38 1
    20    11    12 1
    21    12    13 2
    22    12    14 1
    23    14    15 1
    24    14    39 1
    25    15    16 1
    26    15    40 1
    27    15    41 1
    28    16    17 1
    29    16    42 1
    30    16    43 1
    31    17    18 1
    32    17    44 1
    33    18    19 2
    34    18    20 1
    35    20    21 1
    36    21    22 1
    37    21    24 1
    38    21    45 1
    39    22    23 1
    40    22    46 1
    41    22    47 1
    42    23    26 1
    43    24    25 1
    44    24    48 1
    45    24    49 1
    46    25    26 1
    47    26    27 1
    48    26    28 1
    49    27    50 1
    50    27    51 1
    51    27    52 1
    52    28    29 1
    53    28    30 1
@<TRIPOS>SUBSTRUCTURE
     1 CPJ         1 TEMP              0 ****  ****    0 ROOT
