@<TRIPOS>MOLECULE
CPK
   56    58     1     0     0
SMALL
bcc


@<TRIPOS>ATOM
      1 O30          0.0000     0.0000     0.0000 o          1 CPK      -0.873800
      2 C29          1.3420     0.0000     0.0000 c          1 CPK       0.989600
      3 O31          1.9470     0.0010    -1.0460 o          1 CPK      -0.873800
      4 C26          2.0950     0.0000     1.3060 c3         1 CPK       0.235600
      5 O27          3.4920     0.1250     1.0450 os         1 CPK      -0.354100
      6 C28          4.1360     0.3520     2.3010 c3         1 CPK       0.149150
      7 C32          1.6320     1.1820     2.1580 c3         1 CPK      -0.080100
      8 O25          1.8290    -1.2170     2.0000 os         1 CPK      -0.354100
      9 C24          2.3650    -1.0770     3.3170 c3         1 CPK       0.149150
     10 C23          3.8770    -0.8460     3.2200 c3         1 CPK       0.133100
     11 O22          4.5160    -2.0290     2.6710 os         1 CPK      -0.402400
     12 C20          4.9580    -2.9980     3.4940 c          1 CPK       0.704600
     13 O21          4.8230    -2.8830     4.6960 o          1 CPK      -0.678000
     14 N17          5.5510    -4.0960     2.9840 n          1 CPK      -0.144800
     15 C16          6.0380    -5.1620     3.8700 c3         1 CPK       0.035250
     16 C15          5.4000    -6.4890     3.4380 c3         1 CPK       0.035250
     17 C18          5.7160    -4.2510     1.5320 c3         1 CPK       0.035250
     18 C19          5.0820    -5.5750     1.1010 c3         1 CPK       0.035250
     19 N14          5.5700    -6.6410     1.9860 n          1 CPK      -0.144800
     20 C12          6.1630    -7.7380     1.4770 c          1 CPK       0.704600
     21 O13          6.5620    -8.6140     2.2190 o          1 CPK      -0.678000
     22 O11          6.3120    -7.8650     0.1450 os         1 CPK      -0.402400
     23 C3           6.9510    -9.0490    -0.4040 c3         1 CPK       0.133100
     24 C2           6.3780    -9.3430    -1.7940 c3         1 CPK       0.149150
     25 O1           7.1030   -10.4270    -2.3800 os         1 CPK      -0.354100
     26 C4           8.4590    -8.8050    -0.5320 c3         1 CPK       0.149150
     27 O5           9.0580    -9.9210    -1.1940 os         1 CPK      -0.354100
     28 C6           8.4640   -10.0130    -2.4870 c3         1 CPK       0.235600
     29 C10          8.5240    -8.6440    -3.1700 c3         1 CPK      -0.080100
     30 C7           9.2270   -11.0160    -3.3140 c          1 CPK       0.989600
     31 O8           8.6840   -12.0290    -3.6860 o          1 CPK      -0.873800
     32 O9          10.5080   -10.7840    -3.6360 o          1 CPK      -0.873800
     33 H281         3.7350     1.2500     2.7550 h1         1 CPK       0.016575
     34 H282         5.2020     0.4630     2.1450 h1         1 CPK       0.016575
     35 H321         1.7970     2.1050     1.6160 hc         1 CPK       0.019533
     36 H322         0.5760     1.0770     2.3780 hc         1 CPK       0.019533
     37 H323         2.1930     1.2020     3.0840 hc         1 CPK       0.019533
     38 H241         1.9010    -0.2300     3.8080 h1         1 CPK       0.016575
     39 H242         2.1730    -1.9810     3.8830 h1         1 CPK       0.016575
     40 H23          4.2740    -0.6370     4.2060 h1         1 CPK       0.038700
     41 H161         7.1160    -5.2360     3.7910 h1         1 CPK       0.041325
     42 H162         5.7570    -4.9410     4.8930 h1         1 CPK       0.041325
     43 H151         4.3440    -6.4790     3.6810 h1         1 CPK       0.041325
     44 H152         5.8890    -7.3090     3.9490 h1         1 CPK       0.041325
     45 H181         6.7710    -4.2570     1.2860 h1         1 CPK       0.041325
     46 H182         5.2240    -3.4310     1.0230 h1         1 CPK       0.041325
     47 H191         5.3640    -5.7950     0.0780 h1         1 CPK       0.041325
     48 H192         4.0040    -5.5030     1.1790 h1         1 CPK       0.041325
     49 H3           6.7760    -9.8970     0.2460 h1         1 CPK       0.038700
     50 H21          6.4760    -8.4630    -2.4190 h1         1 CPK       0.016575
     51 H22          5.3330    -9.6140    -1.7040 h1         1 CPK       0.016575
     52 H41          8.8920    -8.6950     0.4540 h1         1 CPK       0.016575
     53 H42          8.6310    -7.9060    -1.1120 h1         1 CPK       0.016575
     54 H101         9.5540    -8.3130    -3.2240 hc         1 CPK       0.019533
     55 H102         7.9450    -7.9290    -2.5980 hc         1 CPK       0.019533
     56 H103         8.1170    -8.7220    -4.1710 hc         1 CPK       0.019533
@<TRIPOS>BOND
     1     1     2 1   
     2     2     3 1   
     3     2     4 1   
     4     4     5 1   
     5     4     7 1   
     6     4     8 1   
     7     5     6 1   
     8     6    10 1   
     9     6    33 1   
    10     6    34 1   
    11     7    35 1   
    12     7    36 1   
    13     7    37 1   
    14     8     9 1   
    15     9    10 1   
    16     9    38 1   
    17     9    39 1   
    18    10    11 1   
    19    10    40 1   
    20    11    12 1   
    21    12    13 2   
    22    12    14 1   
    23    14    15 1   
    24    14    17 1   
    25    15    16 1   
    26    15    41 1   
    27    15    42 1   
    28    16    19 1   
    29    16    43 1   
    30    16    44 1   
    31    17    18 1   
    32    17    45 1   
    33    17    46 1   
    34    18    19 1   
    35    18    47 1   
    36    18    48 1   
    37    19    20 1   
    38    20    21 2   
    39    20    22 1   
    40    22    23 1   
    41    23    24 1   
    42    23    26 1   
    43    23    49 1   
    44    24    25 1   
    45    24    50 1   
    46    24    51 1   
    47    25    28 1   
    48    26    27 1   
    49    26    52 1   
    50    26    53 1   
    51    27    28 1   
    52    28    29 1   
    53    28    30 1   
    54    29    54 1   
    55    29    55 1   
    56    29    56 1   
    57    30    31 1   
    58    30    32 1   
@<TRIPOS>SUBSTRUCTURE
     1 CPK         1 TEMP              0 ****  ****    0 ROOT
