@<TRIPOS>MOLECULE
molecule
  132   131     1     0     0
SMALL
bcc


@<TRIPOS>ATOM
      1 C1           0.0000     0.0000     0.0000 c3         1 CPL       0.137400
      2 C2           1.5300     0.0000     0.0000 c3         1 CPL       0.157100
      3 C3           2.0400     0.0000     1.4430 c3         1 CPL       0.166400
      4 C4          -4.1090    -2.2830     1.3000 c3         1 CPL       0.132400
      5 C5          -4.7510    -3.4900     1.9870 c3         1 CPL       0.100800
      6 C6          -5.2940    -2.1560     3.9050 c3         1 CPL       0.096433
      7 C7          -5.1740    -4.5440     4.1000 c3         1 CPL       0.096433
      8 C8          -3.1710    -3.2640     3.7780 c3         1 CPL       0.096433
      9 C11          1.7690    -1.3220     3.4520 c          1 CPL       0.632100
     10 C12          1.1670    -2.4850     4.1970 c3         1 CPL      -0.121400
     11 C13          1.6770    -2.4850     5.6390 c3         1 CPL      -0.075400
     12 C14          1.0670    -3.6670     6.3960 c3         1 CPL      -0.082400
     13 C15          1.5760    -3.6670     7.8390 c3         1 CPL      -0.081400
     14 C16          0.9660    -4.8490     8.5960 c3         1 CPL      -0.082400
     15 C17          1.4760    -4.8490    10.0380 c3         1 CPL      -0.082400
     16 C18          0.8650    -6.0300    10.7950 c3         1 CPL      -0.082400
     17 C19          1.3750    -6.0300    12.2380 c3         1 CPL      -0.082400
     18 C20          0.7650    -7.2110    12.9940 c3         1 CPL      -0.081400
     19 C21          1.2750    -7.2110    14.4370 c3         1 CPL      -0.082400
     20 C22          0.6650    -8.3930    15.1940 c3         1 CPL      -0.082400
     21 C23          1.1750    -8.3930    16.6360 c3         1 CPL      -0.082400
     22 C24          0.5640    -9.5740    17.3920 c3         1 CPL      -0.081400
     23 C25          1.0740    -9.5740    18.8350 c3         1 CPL      -0.084400
     24 C26          0.4640   -10.7560    19.5910 c3         1 CPL      -0.092100
     25 C32          2.7400    -2.3830    -2.7180 c3         1 CPL      -0.123400
     26 C33          2.9100    -2.0790    -4.2070 c3         1 CPL      -0.072400
     27 C34          3.4200    -3.3280    -4.9290 c3         1 CPL      -0.084400
     28 C35          3.5900    -3.0240    -6.4180 c3         1 CPL      -0.078400
     29 C36          4.0990    -4.2730    -7.1400 c3         1 CPL      -0.091400
     30 C37          4.2700    -3.9680    -8.6290 c3         1 CPL      -0.090400
     31 C38          4.7790    -5.2170    -9.3500 c3         1 CPL       0.013800
     32 C39          4.9460    -4.9180   -10.8170 c2         1 CPL      -0.233200
     33 C40          6.0850    -5.1760   -11.4130 c2         1 CPL      -0.190200
     34 C41          7.1640    -5.9320   -10.6810 c3         1 CPL       0.289000
     35 C42          7.5980    -7.1130   -11.5090 c2         1 CPL      -0.187200
     36 C43          8.8660    -7.2850   -11.7890 c2         1 CPL      -0.238200
     37 C44          9.9070    -6.4100   -11.1420 c3         1 CPL       0.014800
     38 C45         10.9700    -7.2870   -10.4770 c3         1 CPL      -0.091400
     39 C46         12.0270    -6.3960    -9.8190 c3         1 CPL      -0.090400
     40 C47         13.0900    -7.2740    -9.1560 c3         1 CPL      -0.082400
     41 C48         14.1470    -6.3840    -8.4980 c3         1 CPL      -0.092100
     42 N           -4.5970    -3.3640     3.4420 n4         1 CPL      -0.569800
     43 O2           2.0140    -1.1860    -0.6840 os         1 CPL      -0.421900
     44 O3           1.4620    -1.1210     2.1610 os         1 CPL      -0.384900
     45 O11          2.5270    -0.5700     4.0170 o          1 CPL      -0.569000
     46 O31          2.0370    -0.1360    -2.6290 o          1 CPL      -0.556000
     47 O1P         -2.5700     0.2400     1.4450 o          1 CPL      -0.799500
     48 O2P         -2.5600    -1.0230    -0.7400 o          1 CPL      -0.799500
     49 O3P         -0.4760    -1.1030     0.7730 os         1 CPL      -0.521200
     50 O4P         -2.6910    -2.3340     1.4740 os         1 CPL      -0.557200
     51 P           -2.0850    -1.0410     0.7300 p5         1 CPL       1.249800
     52 HC11        -0.3610    -0.0900    -1.0170 h1         1 CPL       0.074200
     53 HC12        -0.3610     0.9260     0.4310 h1         1 CPL       0.074200
     54 HC2          1.8910     0.8840    -0.5110 h1         1 CPL       0.080700
     55 HC31         1.7530     0.9260     1.9270 h1         1 CPL       0.054200
     56 HC32         3.1190    -0.0880     1.4440 h1         1 CPL       0.054200
     57 HC41        -4.4940    -1.3700     1.7390 h1         1 CPL       0.094200
     58 HC42        -4.3440    -2.3020     0.2430 h1         1 CPL       0.094200
     59 HC51        -5.8040    -3.5290     1.7380 hx         1 CPL       0.093200
     60 HC52        -4.2650    -4.3970     1.6500 hx         1 CPL       0.093200
     61 HC61        -6.2340    -2.0560     3.3760 hx         1 CPL       0.095589
     62 HC62        -4.6770    -1.2870     3.7120 hx         1 CPL       0.095589
     63 HC63        -5.4850    -2.2340     4.9690 hx         1 CPL       0.095589
     64 HC71        -5.0730    -4.4440     5.1740 hx         1 CPL       0.095589
     65 HC72        -4.6510    -5.4330     3.7690 hx         1 CPL       0.095589
     66 HC73        -6.2230    -4.6250     3.8410 hx         1 CPL       0.095589
     67 HC81        -2.8360    -2.2440     3.6330 hx         1 CPL       0.095589
     68 HC82        -2.6010    -3.9260     3.1370 hx         1 CPL       0.095589
     69 HC83        -3.0230    -3.5490     4.8130 hx         1 CPL       0.095589
     70 H121         0.0870    -2.3950     4.1960 hc         1 CPL       0.062700
     71 H122         1.4530    -3.4110     3.7130 hc         1 CPL       0.062700
     72 H131         2.7570    -2.5740     5.6410 hc         1 CPL       0.061200
     73 H132         1.3910    -1.5590     6.1240 hc         1 CPL       0.061200
     74 H141        -0.0130    -3.5780     6.3950 hc         1 CPL       0.032200
     75 H142         1.3540    -4.5920     5.9120 hc         1 CPL       0.032200
     76 H151         2.6560    -3.7570     7.8410 hc         1 CPL       0.047200
     77 H152         1.2900    -2.7420     8.3240 hc         1 CPL       0.047200
     78 H161        -0.1130    -4.7600     8.5950 hc         1 CPL       0.036200
     79 H162         1.2530    -5.7750     8.1120 hc         1 CPL       0.036200
     80 H171         1.1910    -3.9230    10.5220 hc         1 CPL       0.044200
     81 H172         2.5560    -4.9390    10.0390 hc         1 CPL       0.044200
     82 H181        -0.2140    -5.9400    10.7930 hc         1 CPL       0.038700
     83 H182         1.1520    -6.9560    10.3110 hc         1 CPL       0.038700
     84 H191         2.4550    -6.1190    12.2390 hc         1 CPL       0.042700
     85 H192         1.0880    -5.1040    12.7220 hc         1 CPL       0.042700
     86 H201         1.0520    -8.1370    12.5090 hc         1 CPL       0.039700
     87 H202        -0.3140    -7.1230    12.9920 hc         1 CPL       0.039700
     88 H211         2.3550    -7.3010    14.4380 hc         1 CPL       0.042200
     89 H212         0.9890    -6.2860    14.9210 hc         1 CPL       0.042200
     90 H221        -0.4140    -8.3040    15.1930 hc         1 CPL       0.040200
     91 H222         0.9520    -9.3190    14.7090 hc         1 CPL       0.040200
     92 H231         2.2550    -8.4830    16.6370 hc         1 CPL       0.041700
     93 H232         0.8900    -7.4670    17.1200 hc         1 CPL       0.041700
     94 H241         0.8510   -10.5000    16.9080 hc         1 CPL       0.040700
     95 H242        -0.5150    -9.4840    17.3910 hc         1 CPL       0.040700
     96 H251         0.7870    -8.6480    19.3200 hc         1 CPL       0.040200
     97 H252         2.1540    -9.6630    18.8370 hc         1 CPL       0.040200
     98 H261         0.8250   -10.7560    20.6130 hc         1 CPL       0.032700
     99 H262         0.7510   -11.6810    19.1070 hc         1 CPL       0.032700
    100 H263        -0.6150   -10.6670    19.5900 hc         1 CPL       0.032700
    101 H321         3.6940    -2.6780    -2.2980 hc         1 CPL       0.069200
    102 H322         2.0270    -3.1890    -2.5930 hc         1 CPL       0.069200
    103 H331         1.9560    -1.7840    -4.6270 hc         1 CPL       0.060700
    104 H332         3.6240    -1.2740    -4.3320 hc         1 CPL       0.060700
    105 H341         4.3740    -3.6230    -4.5090 hc         1 CPL       0.038200
    106 H342         2.7060    -4.1340    -4.8040 hc         1 CPL       0.038200
    107 H351         2.6350    -2.7290    -6.8380 hc         1 CPL       0.047200
    108 H352         4.3030    -2.2180    -6.5430 hc         1 CPL       0.047200
    109 H361         5.0530    -4.5690    -6.7200 hc         1 CPL       0.037700
    110 H362         3.3850    -5.0780    -7.0150 hc         1 CPL       0.037700
    111 H371         3.3160    -3.6720    -9.0490 hc         1 CPL       0.056200
    112 H372         4.9840    -3.1630    -8.7540 hc         1 CPL       0.056200
    113 H381         4.0650    -6.0230    -9.2250 hc         1 CPL       0.042200
    114 H382         5.7330    -5.5120    -8.9310 hc         1 CPL       0.042200
    115 H39          4.6700    -5.9100   -10.4810 ha         1 CPL       0.118000
    116 H40          6.7720    -4.6620   -10.7520 ha         1 CPL      -0.006000
    117 H411         6.7800    -6.2790    -9.7300 hc         1 CPL       0.052200
    118 H412         8.0110    -5.2780   -10.5120 hc         1 CPL       0.052200
    119 H42          7.6290    -7.1520   -10.4270 ha         1 CPL      -0.007000
    120 H43          9.1090    -6.3140   -12.2020 ha         1 CPL       0.117000
    121 H441        10.3730    -5.7860   -11.8950 hc         1 CPL       0.043200
    122 H442         9.4370    -5.7830   -10.3940 hc         1 CPL       0.043200
    123 H451        10.5040    -7.9110    -9.7240 hc         1 CPL       0.054700
    124 H452        11.4400    -7.9140   -11.2250 hc         1 CPL       0.054700
    125 H461        11.5570    -5.7700    -9.0710 hc         1 CPL       0.039200
    126 H462        12.4920    -5.7720   -10.5720 hc         1 CPL       0.039200
    127 H471        12.6250    -7.8990    -8.4030 hc         1 CPL       0.042200
    128 H472        13.5610    -7.9010    -9.9040 hc         1 CPL       0.042200
    129 H481        14.9040    -7.0050    -8.0330 hc         1 CPL       0.033367
    130 H482        14.6090    -5.7560    -9.2500 hc         1 CPL       0.033367
    131 H483        13.6780    -5.7620    -7.7460 hc         1 CPL       0.033367
    132 C31          2.2380    -1.1530    -2.0080 c          1 CPL       0.637100
@<TRIPOS>BOND
     1     1     2 1
     2     1    49 1
     3     1    52 1
     4     1    53 1
     5     2     3 1
     6     2    43 1
     7     2    54 1
     8     3    44 1
     9     3    55 1
    10     3    56 1
    11     4     5 1
    12     4    50 1
    13     4    57 1
    14     4    58 1
    15     5    42 1
    16     5    59 1
    17     5    60 1
    18     6    42 1
    19     6    61 1
    20     6    62 1
    21     6    63 1
    22     7    42 1
    23     7    64 1
    24     7    65 1
    25     7    66 1
    26     8    42 1
    27     8    67 1
    28     8    68 1
    29     8    69 1
    30     9    10 1
    31     9    44 1
    32     9    45 2
    33    10    11 1
    34    10    70 1
    35    10    71 1
    36    11    12 1
    37    11    72 1
    38    11    73 1
    39    12    13 1
    40    12    74 1
    41    12    75 1
    42    13    14 1
    43    13    76 1
    44    13    77 1
    45    14    15 1
    46    14    78 1
    47    14    79 1
    48    15    16 1
    49    15    80 1
    50    15    81 1
    51    16    17 1
    52    16    82 1
    53    16    83 1
    54    17    18 1
    55    17    84 1
    56    17    85 1
    57    18    19 1
    58    18    86 1
    59    18    87 1
    60    19    20 1
    61    19    88 1
    62    19    89 1
    63    20    21 1
    64    20    90 1
    65    20    91 1
    66    21    22 1
    67    21    92 1
    68    21    93 1
    69    22    23 1
    70    22    94 1
    71    22    95 1
    72    23    24 1
    73    23    96 1
    74    23    97 1
    75    24    98 1
    76    24    99 1
    77    24   100 1
    78   132    25 1
    79   132    43 1
    80   132    46 2
    81    25    26 1
    82    25   101 1
    83    25   102 1
    84    26    27 1
    85    26   103 1
    86    26   104 1
    87    27    28 1
    88    27   105 1
    89    27   106 1
    90    28    29 1
    91    28   107 1
    92    28   108 1
    93    29    30 1
    94    29   109 1
    95    29   110 1
    96    30    31 1
    97    30   111 1
    98    30   112 1
    99    31    32 1
   100    31   113 1
   101    31   114 1
   102    32    33 2
   103    32   115 1
   104    33    34 1
   105    33   116 1
   106    34    35 1
   107    34   117 1
   108    34   118 1
   109    35    36 2
   110    35   119 1
   111    36    37 1
   112    36   120 1
   113    37    38 1
   114    37   121 1
   115    37   122 1
   116    38    39 1
   117    38   123 1
   118    38   124 1
   119    39    40 1
   120    39   125 1
   121    39   126 1
   122    40    41 1
   123    40   127 1
   124    40   128 1
   125    41   129 1
   126    41   130 1
   127    41   131 1
   128    47    51 1
   129    48    51 1
   130    49    51 1
   131    50    51 1
@<TRIPOS>SUBSTRUCTURE
     1 CPL         1 TEMP              0 ****  ****    0 ROOT
