@<TRIPOS>MOLECULE
molecule
   31    31     1     0     0
SMALL
bcc


@<TRIPOS>ATOM
      1 CA1          0.0000     0.0000     0.0000 c3         1 CPM       0.046400
      2 CA           1.5290     0.0000     0.0000 c3         1 CPM      -0.154700
      3 C            2.0310     0.0000     1.4200 c          1 CPM       0.898600
      4 O            1.4370     0.6190     2.2720 o          1 CPM      -0.831300
      5 CB           2.0390     1.2480    -0.7210 c3         1 CPM      -0.042100
      6 CG           3.5460     1.2470    -0.7210 ca         1 CPM      -0.042300
      7 CD1          4.2370     0.6500    -1.7570 ca         1 CPM      -0.101500
      8 CD2          4.2370     1.8510     0.3120 ca         1 CPM      -0.101500
      9 CE1          5.6190     0.6490    -1.7570 ca         1 CPM      -0.137000
     10 CE2          5.6190     1.8470     0.3150 ca         1 CPM      -0.137000
     11 CZ           6.3100     1.2480    -0.7200 ca         1 CPM      -0.148000
     12 OXT          3.1380    -0.6870     1.7420 o          1 CPM      -0.831300
     13 S           -0.6050    -0.1850    -1.6990 s6         1 CPM       0.511400
     14 N1           0.0490    -1.3690    -2.3340 n2         1 CPM      -0.877900
     15 N2          -0.2760     1.0430    -2.4820 n2         1 CPM      -0.877900
     16 CM          -2.4030    -0.4270    -1.6790 c3         1 CPM      -0.252300
     17 HA11        -0.3610    -0.8240     0.6030 h1         1 CPM       0.102200
     18 HA12        -0.3610     0.9340     0.4120 h1         1 CPM       0.102200
     19 HA           1.8900    -0.8850    -0.5100 hc         1 CPM       0.087700
     20 HB1          1.6790     2.1330    -0.2100 hc         1 CPM       0.058200
     21 HB2          1.6770     1.2490    -1.7420 hc         1 CPM       0.058200
     22 HD1          3.6950     0.1810    -2.5700 ha         1 CPM       0.134500
     23 HD2          3.6960     2.3210     1.1240 ha         1 CPM       0.134500
     24 HE1          6.1600     0.1800    -2.5700 ha         1 CPM       0.108500
     25 HE2          6.1610     2.3180     1.1260 ha         1 CPM       0.108500
     26 HZ           7.3940     1.2460    -0.7190 ha         1 CPM       0.103000
     27 HN1         -0.4470    -1.9080    -3.0150 hn         1 CPM       0.433400
     28 HN2         -0.1110     0.9790    -3.4670 hn         1 CPM       0.433400
     29 HM1         -2.6430    -1.3030    -1.0890 h1         1 CPM       0.071367
     30 HM2         -2.7600    -0.5650    -2.6920 h1         1 CPM       0.071367
     31 HM3         -2.8800     0.4430    -1.2430 h1         1 CPM       0.071367
@<TRIPOS>BOND
     1     1     2 1
     2     1    13 1
     3     1    17 1
     4     1    18 1
     5     2     3 1
     6     2     5 1
     7     2    19 1
     8     3     4 1
     9     3    12 1
    10     5     6 1
    11     5    20 1
    12     5    21 1
    13     6     7 ar
    14     6     8 ar
    15     7     9 ar
    16     7    22 1
    17     8    10 ar
    18     8    23 1
    19     9    11 ar
    20     9    24 1
    21    10    11 ar
    22    10    25 1
    23    11    26 1
    24    13    14 2
    25    13    15 2
    26    13    16 1
    27    14    27 1
    28    15    28 1
    29    16    29 1
    30    16    30 1
    31    16    31 1
@<TRIPOS>SUBSTRUCTURE
     1 CPM         1 TEMP              0 ****  ****    0 ROOT
