@<TRIPOS>MOLECULE
molecule
   20    20     1     0     0
SMALL
bcc


@<TRIPOS>ATOM
      1 C1           0.0000     0.0000     0.0000 c          1 CPP       0.572900
      2 C2           1.5070     0.0000     0.0000 c3         1 CPP      -0.192700
      3 C3           2.0150     0.0000     1.4430 c3         1 CPP      -0.084100
      4 C1'          3.5470    -1.2480    -0.7190 cx         1 CPP      -0.140700
      5 C2'          4.2550    -2.4230    -1.3960 cx         1 CPP      -0.136400
      6 C3'          4.2540    -1.0450    -2.0590 cx         1 CPP      -0.136400
      7 C4'          2.0180    -1.2480    -0.7200 c3         1 CPP      -0.035400
      8 O1          -0.6040     0.9040    -0.5230 o          1 CPP      -0.520100
      9 H1          -0.5410    -0.8220     0.4520 h4         1 CPP      -0.005800
     10 H2           1.8680     0.8850    -0.5100 hc         1 CPP       0.080700
     11 H31          1.1720     0.0430     2.1230 hc         1 CPP       0.040700
     12 H32          2.5810    -0.9050     1.6270 hc         1 CPP       0.040700
     13 H33          2.6520     0.8620     1.6020 hc         1 CPP       0.040700
     14 H1'          4.0690    -0.8360     0.1360 hc         1 CPP       0.083700
     15 H2'1         5.1930    -2.7250    -0.9470 hc         1 CPP       0.074200
     16 H2'2         3.6050    -3.1610    -1.8520 hc         1 CPP       0.074200
     17 H3'1         5.1920    -0.5040    -2.0150 hc         1 CPP       0.074200
     18 H3'2         3.6050    -0.9400    -2.9200 hc         1 CPP       0.074200
     19 H4'1         1.6570    -1.2480    -1.7410 hc         1 CPP       0.047700
     20 H4'2         1.6570    -2.1320    -0.2090 hc         1 CPP       0.047700
@<TRIPOS>BOND
     1     1     2 1
     2     1     8 2
     3     1     9 1
     4     2     3 1
     5     2     7 1
     6     2    10 1
     7     3    11 1
     8     3    12 1
     9     3    13 1
    10     4     5 1
    11     4     6 1
    12     4     7 1
    13     4    14 1
    14     5     6 1
    15     5    15 1
    16     5    16 1
    17     6    17 1
    18     6    18 1
    19     7    19 1
    20     7    20 1
@<TRIPOS>SUBSTRUCTURE
     1 CPP         1 TEMP              0 ****  ****    0 ROOT
