@<TRIPOS>MOLECULE
CPP
   20    20     1     0     0
SMALL
bcc


@<TRIPOS>ATOM
      1 C1          0.0920   -0.0370   -0.1480 c         1 CPP      0.566900
      2 C2          1.5870   -0.0740    0.0460 c3        1 CPP     -0.184700
      3 C3          1.9000    0.1100    1.5160 c3        1 CPP     -0.087100
      4 C1'         3.6010   -1.3510   -0.7130 cx        1 CPP     -0.127700
      5 C2'         4.2320   -2.3580   -1.6380 cx        1 CPP     -0.129900
      6 C3'         4.1470   -0.9190   -2.0490 cx        1 CPP     -0.129900
      7 C4'         2.1240   -1.3970   -0.4880 c3        1 CPP     -0.043400
      8 O1         -0.4790    0.8310   -0.8080 o         1 CPP     -0.523100
      9 H1         -0.4690   -0.8570    0.3530 h4        1 CPP     -0.005800
     10 H2          2.0550    0.7690   -0.5370 hc        1 CPP      0.082700
     11 H31         1.5040    1.0890    1.8770 hc        1 CPP      0.041367
     12 H32         1.4420   -0.7070    2.1250 hc        1 CPP      0.041367
     13 H33         3.0050    0.0930    1.6780 hc        1 CPP      0.041367
     14 H1'         4.1650   -1.0560    0.1950 hc        1 CPP      0.079700
     15 H2'1        5.2150   -2.7840   -1.3690 hc        1 CPP      0.071450
     16 H2'2        3.5870   -3.0990   -2.1420 hc        1 CPP      0.071450
     17 H3'1        3.4400   -0.6310   -2.8480 hc        1 CPP      0.071450
     18 H3'2        5.0680   -0.3110   -2.0760 hc        1 CPP      0.071450
     19 H4'1        1.6030   -1.6420   -1.4530 hc        1 CPP      0.046200
     20 H4'2        1.8870   -2.2180    0.2390 hc        1 CPP      0.046200
@<TRIPOS>BOND
     1    1    2 1   
     2    1    8 2   
     3    1    9 1   
     4    2    3 1   
     5    2    7 1   
     6    2   10 1   
     7    3   11 1   
     8    3   12 1   
     9    3   13 1   
    10    4    5 1   
    11    4    6 1   
    12    4    7 1   
    13    4   14 1   
    14    5    6 1   
    15    5   15 1   
    16    5   16 1   
    17    6   17 1   
    18    6   18 1   
    19    7   19 1   
    20    7   20 1   
@<TRIPOS>SUBSTRUCTURE
     1 CPP         1 TEMP              0 ****  ****    0 ROOT
