@<TRIPOS>MOLECULE
molecule
   48    48     1     0     0
SMALL
bcc


@<TRIPOS>ATOM
      1 C            0.0000     0.0000     0.0000 c          1 CPV       0.886600
      2 N           -4.9650     1.0240     1.1300 nz         1 CPV      -0.805600
      3 O            1.3430     0.0000     0.0000 o          1 CPV      -0.835800
      4 CA          -4.1290     1.2460    -0.0570 c3         1 CPV       0.088500
      5 CB          -4.5290     2.5630    -0.7240 c3         1 CPV      -0.105400
      6 CG          -5.9610     2.4530    -1.2520 c3         1 CPV      -0.086700
      7 CH          -2.6580     1.3110     0.3600 c3         1 CPV       0.115100
      8 OH          -2.4710     2.3870     1.2810 oh         1 CPV      -0.640800
      9 CZ          -7.8920     2.6490    -3.4460 c3         1 CPV      -0.081400
     10 CA'         -0.7520     0.0000     1.3050 c3         1 CPV      -0.166700
     11 CB'         -0.3790    -1.2460     2.1100 c3         1 CPV      -0.049700
     12 CB1         -2.2580    -0.0070     1.0260 c3         1 CPV      -0.080400
     13 CD1         -6.0160     1.4040    -2.3630 c3         1 CPV      -0.076900
     14 CD2         -6.4060     3.8080    -1.8060 c3         1 CPV      -0.076900
     15 CE1         -7.4480     1.2940    -2.8910 c3         1 CPV      -0.079900
     16 CE2         -7.8370     3.6980    -2.3340 c3         1 CPV      -0.079900
     17 CG1         -1.2510    -1.3240     3.3640 c3         1 CPV      -0.082100
     18 CG2          1.0950    -1.1670     2.5170 c3         1 CPV      -0.082100
     19 OXT         -0.6040    -0.0050    -1.0460 o          1 CPV      -0.835800
     20 HN          -5.9170     0.8980     0.8490 hn         1 CPV       0.448800
     21 H2          -4.8980     1.8160     1.7380 hn         1 CPV       0.448800
     22 H3          -4.2700     0.4300    -0.7560 hx         1 CPV       0.123700
     23 HB          -4.4710     3.3660     0.0010 hc         1 CPV       0.085200
     24 HBA         -3.8550     2.7700    -1.5460 hc         1 CPV       0.085200
     25 HG          -6.6250     2.1600    -0.4480 hc         1 CPV       0.015700
     26 HH          -2.0420     1.4750    -0.5160 h1         1 CPV       0.148700
     27 HOH         -1.8380     2.9920     0.9330 ho         1 CPV       0.438000
     28 HZ          -7.2300     2.9430    -4.2520 hc         1 CPV       0.051200
     29 HZA         -8.9070     2.5700    -3.8170 hc         1 CPV       0.051200
     30 HA'         -0.4940     0.8870     1.8710 hc         1 CPV       0.056700
     31 H12         -0.5390    -2.1290     1.5030 hc         1 CPV       0.050700
     32 HB1         -2.5000    -0.8320     0.3680 hc         1 CPV       0.030700
     33 HB1A        -2.7970    -0.1180     1.9590 hc         1 CPV       0.030700
     34 HD1         -5.3560     1.6990    -3.1700 hc         1 CPV       0.050200
     35 HD1A        -5.7040     0.4450    -1.9670 hc         1 CPV       0.050200
     36 HD2         -5.7460     4.1000    -2.6140 hc         1 CPV       0.050200
     37 HD2A        -6.3700     4.5490    -1.0170 hc         1 CPV       0.050200
     38 HE1         -8.1080     1.0030    -2.0830 hc         1 CPV       0.045200
     39 HE1A        -7.4840     0.5530    -3.6800 hc         1 CPV       0.045200
     40 HE2         -8.1490     4.6570    -2.7290 hc         1 CPV       0.045200
     41 HE2A        -8.4970     3.4020    -1.5270 hc         1 CPV       0.045200
     42 HG1         -2.2410    -1.6700     3.0940 hc         1 CPV       0.029200
     43 HG1A        -0.8070    -2.0160     4.0700 hc         1 CPV       0.029200
     44 H25         -1.3210    -0.3420     3.8170 hc         1 CPV       0.029200
     45 HG2          1.3880    -0.1280     2.6110 hc         1 CPV       0.029200
     46 HG2A         1.2350    -1.6700     3.4660 hc         1 CPV       0.029200
     47 HG2B         1.7050    -1.6460     1.7600 hc         1 CPV       0.029200
     48 HN3         -4.6530     0.2020     1.6080 hn         1 CPV       0.448800
@<TRIPOS>BOND
     1     1     3 1
     2     1    10 1
     3     4     2 1
     4     5     4 1
     5     6     5 1
     6     6    14 1
     7     6    13 1
     8     7     4 1
     9     7     8 1
    10     7    12 1
    11    10    12 1
    12    10    11 1
    13    11    18 1
    14    15     9 1
    15    15    13 1
    16    16     9 1
    17    16    14 1
    18    17    11 1
    19     1    19 1
    20     2    20 1
    21     2    21 1
    22     4    22 1
    23     5    23 1
    24     5    24 1
    25     6    25 1
    26     7    26 1
    27     8    27 1
    28     9    28 1
    29     9    29 1
    30    10    30 1
    31    11    31 1
    32    12    32 1
    33    12    33 1
    34    13    34 1
    35    13    35 1
    36    14    36 1
    37    14    37 1
    38    15    38 1
    39    15    39 1
    40    16    40 1
    41    16    41 1
    42    17    42 1
    43    17    43 1
    44    17    44 1
    45    18    45 1
    46    18    46 1
    47    18    47 1
    48    48     2 1
@<TRIPOS>SUBSTRUCTURE
     1 CPV         1 TEMP              0 ****  ****    0 ROOT
