@<TRIPOS>MOLECULE
CPW
   30    31     1     0     0
SMALL
bcc


@<TRIPOS>ATOM
      1 C1          0.1530   -0.0100   -0.1610 c3        1 CPW      0.089000
      2 N1         -0.3400    0.0520   -1.5220 n         1 CPW     -0.365000
      3 C2         -0.5120   -1.1460   -2.2630 c         1 CPW      0.811500
      4 N2         -1.1200   -1.1060   -3.5180 n         1 CPW     -0.577500
      5 C3         -0.7740    1.2390   -2.0910 cc        1 CPW      0.086400
      6 O1         -0.0910   -2.2390   -1.8000 o         1 CPW     -0.718500
      7 C4         -1.3550    1.2910   -3.3370 cd        1 CPW     -0.275400
      8 C5         -1.5770    0.0900   -4.1270 c         1 CPW      0.733700
      9 O2         -2.1070    0.0160   -5.2450 o         1 CPW     -0.593500
     10 C6         -0.6780    2.6110   -1.4730 c3        1 CPW     -0.051200
     11 C7         -1.2560    3.5490   -2.5430 c3        1 CPW     -0.082400
     12 C8         -1.7100    2.6830   -3.7290 c3        1 CPW     -0.009200
     13 C9          1.6650   -0.1990   -0.0220 c3        1 CPW     -0.104500
     14 C10         2.0950    0.2730    1.4670 c         1 CPW      0.943600
     15 O3          1.6180    1.3650    1.8160 o         1 CPW     -0.751800
     16 O4          2.8690   -0.5170    2.0560 o         1 CPW     -0.751800
     17 N3          2.1120   -1.5990   -0.2540 n4        1 CPW     -0.825600
     18 H11        -0.0850    0.9700    0.3600 h1        1 CPW      0.107700
     19 H12        -0.3960   -0.8370    0.3780 h1        1 CPW      0.107700
     20 HN2        -1.2440   -1.9770   -3.9900 hn        1 CPW      0.355500
     21 H61        -1.2720    2.6620   -0.5250 hc        1 CPW      0.082200
     22 H62         0.3840    2.8670   -1.2280 hc        1 CPW      0.082200
     23 H71        -2.1190    4.1240   -2.1270 hc        1 CPW      0.058200
     24 H72        -0.4800    4.2830   -2.8710 hc        1 CPW      0.058200
     25 H81        -2.8110    2.7770   -3.9070 hc        1 CPW      0.066700
     26 H82        -1.1870    2.9770   -4.6740 hc        1 CPW      0.066700
     27 H9          2.2290    0.4730   -0.7240 hx        1 CPW      0.095700
     28 HN31        2.5450   -1.7040   -1.1660 hn        1 CPW      0.453800
     29 HN32        1.3150   -2.2420   -0.1960 hn        1 CPW      0.453800
     30 H33         2.7940   -1.8220    0.5020 hn        1 CPW      0.453800
@<TRIPOS>BOND
     1    1    2 1   
     2    1   13 1   
     3    1   18 1   
     4    1   19 1   
     5    2    3 1   
     6    2    5 1   
     7    3    4 1   
     8    3    6 2   
     9    4    8 1   
    10    4   20 1   
    11    5    7 2   
    12    5   10 1   
    13    7    8 1   
    14    7   12 1   
    15    8    9 2   
    16   10   11 1   
    17   10   21 1   
    18   10   22 1   
    19   11   12 1   
    20   11   23 1   
    21   11   24 1   
    22   12   25 1   
    23   12   26 1   
    24   13   14 1   
    25   13   17 1   
    26   13   27 1   
    27   14   15 1   
    28   14   16 1   
    29   17   28 1   
    30   17   29 1   
    31   17   30 1   
@<TRIPOS>SUBSTRUCTURE
     1 CPW         1 TEMP              0 ****  ****    0 ROOT
