@<TRIPOS>MOLECULE
molecule
   70    73     1     0     0
SMALL
bcc


@<TRIPOS>ATOM
      1 O27          0.0000     0.0000     0.0000 o          1 CPX      -0.670100
      2 C17          0.4190    -7.0400    -9.5090 cx         1 CPX      -0.142900
      3 C16          1.9380    -6.9890    -9.3330 cx         1 CPX      -0.142900
      4 C12          1.0220    -6.4430    -8.2360 cx         1 CPX      -0.155700
      5 C26          1.2160     0.0000     0.0000 c          1 CPX       0.784100
      6 N4           1.8900     0.0000     1.1680 ns         1 CPX      -0.596900
      7 C29          1.1570     0.0010     2.4360 c3         1 CPX       0.131700
      8 C30          2.0270    -0.6100     3.5480 c3         1 CPX      -0.097900
      9 C32          2.2150     0.4890     4.6150 c3         1 CPX      -0.085900
     10 C31          1.0040     1.4310     4.4060 c3         1 CPX      -0.085900
     11 C28          0.8470     1.4500     2.8660 c3         1 CPX      -0.097900
     12 N3           1.8900    -0.0010    -1.1670 ns         1 CPX      -0.592900
     13 C13          1.1570    -0.0010    -2.4360 c3         1 CPX       0.073700
     14 C19          0.7940     1.4360    -2.8150 c3         1 CPX      -0.081700
     15 C22         -0.0840     1.4260    -4.0680 c3         1 CPX      -0.092600
     16 C18          0.0310     2.0910    -1.6620 c3         1 CPX      -0.092600
     17 C14          2.0210    -0.6030    -3.5140 c          1 CPX       0.679100
     18 O15          3.2260    -0.4780    -3.4670 o          1 CPX      -0.612100
     19 N2           1.4540    -1.2810    -4.5320 n          1 CPX      -0.492800
     20 C6           2.1590    -1.8070    -5.7100 c3         1 CPX       0.127700
     21 C8           1.1140    -2.5300    -6.5850 c3         1 CPX       0.098700
     22 C9          -0.0230    -2.8510    -5.5790 c3         1 CPX      -0.112400
     23 C7           0.0210    -1.6100    -4.6530 c3         1 CPX       0.082000
     24 N1           1.6660    -3.7620    -7.1540 ns         1 CPX      -0.562900
     25 C10          1.0940    -4.3170    -8.2410 c          1 CPX       0.624100
     26 O11          0.1230    -3.7970    -8.7470 o          1 CPX      -0.566100
     27 C25          2.7990    -0.6650    -6.4990 cy         1 CPX      -0.233000
     28 C24          1.7870     0.3100    -7.0440 c          1 CPX       0.590900
     29 O5           1.8290     1.4710    -6.7170 o          1 CPX      -0.509100
     30 C23          3.9720     0.0110    -5.7670 cy         1 CPX      -0.068400
     31 C21          4.6850     0.0700    -7.1270 cy         1 CPX      -0.112400
     32 C20          3.8270    -1.1360    -7.5420 cy         1 CPX      -0.068400
     33 H172        -0.0320    -8.0180    -9.3980 hc         1 CPX       0.081700
     34 H161         2.4530    -6.2430    -9.9270 hc         1 CPX       0.081700
     35 H162         2.4150    -7.9360    -9.1150 hc         1 CPX       0.081700
     36 H12          0.9410    -7.0720    -7.3580 hc         1 CPX       0.099700
     37 HN4          2.8900    -0.0340     1.1680 hn         1 CPX       0.309500
     38 H29          0.2360    -0.5600     2.3380 h1         1 CPX       0.082700
     39 H301         2.9890    -0.9030     3.1450 hc         1 CPX       0.052450
     40 H302         1.5240    -1.4650     3.9830 hc         1 CPX       0.052450
     41 H321         2.1920     0.0580     5.6090 hc         1 CPX       0.046200
     42 H322         3.1430     1.0230     4.4470 hc         1 CPX       0.046200
     43 H311         1.2230     2.4240     4.7800 hc         1 CPX       0.046200
     44 H312         0.1170     1.0230     4.8760 hc         1 CPX       0.046200
     45 H281        -0.1680     1.7160     2.5930 hc         1 CPX       0.052450
     46 H282         1.5580     2.1360     2.4220 hc         1 CPX       0.052450
     47 HN3          2.8900    -0.0380    -1.1670 hn         1 CPX       0.327500
     48 H13          0.2510    -0.5860    -2.3300 h1         1 CPX       0.085700
     49 H19          1.7000     1.9960    -3.0130 hc         1 CPX       0.064700
     50 H221         0.4680     0.9910    -4.8920 hc         1 CPX       0.042200
     51 H222        -0.3660     2.4420    -4.3180 hc         1 CPX       0.042200
     52 H223        -0.9750     0.8400    -3.8800 hc         1 CPX       0.042200
     53 H181        -0.7830     1.4450    -1.3550 hc         1 CPX       0.042200
     54 H182         0.7030     2.2470    -0.8270 hc         1 CPX       0.042200
     55 H183        -0.3680     3.0440    -1.9880 hc         1 CPX       0.042200
     56 H6           2.9190    -2.5120    -5.3940 h1         1 CPX       0.069700
     57 H8           0.7530    -1.8700    -7.3650 h1         1 CPX       0.089700
     58 H91          0.1980    -3.7550    -5.0240 hc         1 CPX       0.070700
     59 H92         -0.9780    -2.9210    -6.0850 hc         1 CPX       0.070700
     60 H71         -0.3910    -1.8530    -3.6810 h1         1 CPX       0.060200
     61 H72         -0.5170    -0.7860    -5.1030 h1         1 CPX       0.060200
     62 HN1          2.4410    -4.2130    -6.7110 hn         1 CPX       0.322500
     63 H24          1.0550    -0.0210    -7.7710 h4         1 CPX       0.001200
     64 H231         4.4630    -0.6450    -5.0590 hc         1 CPX       0.069450
     65 H232         3.7200     0.9900    -5.3770 hc         1 CPX       0.069450
     66 H211         4.4540     0.9670    -7.6880 hc         1 CPX       0.057700
     67 H212         5.7410    -0.1630    -7.0620 hc         1 CPX       0.057700
     68 H201         3.4620    -1.0660    -8.5590 hc         1 CPX       0.069450
     69 H202         4.2820    -2.0860    -7.2890 hc         1 CPX       0.069450
     70 H171         0.0050    -6.3250   -10.2100 hc         1 CPX       0.081700
@<TRIPOS>BOND
     1     1     5 2
     2     2     3 1
     3     2     4 1
     4     2    70 1
     5     2    33 1
     6     3     4 1
     7     3    34 1
     8     3    35 1
     9     4    25 1
    10     4    36 1
    11     5     6 1
    12     5    12 1
    13     6     7 1
    14     6    37 1
    15     7     8 1
    16     7    11 1
    17     7    38 1
    18     8     9 1
    19     8    39 1
    20     8    40 1
    21     9    10 1
    22     9    41 1
    23     9    42 1
    24    10    11 1
    25    10    43 1
    26    10    44 1
    27    11    45 1
    28    11    46 1
    29    12    13 1
    30    12    47 1
    31    13    14 1
    32    13    17 1
    33    13    48 1
    34    14    15 1
    35    14    16 1
    36    14    49 1
    37    15    50 1
    38    15    51 1
    39    15    52 1
    40    16    53 1
    41    16    54 1
    42    16    55 1
    43    17    18 2
    44    17    19 1
    45    19    20 1
    46    19    23 1
    47    20    21 1
    48    20    27 1
    49    20    56 1
    50    21    22 1
    51    21    24 1
    52    21    57 1
    53    22    23 1
    54    22    58 1
    55    22    59 1
    56    23    60 1
    57    23    61 1
    58    24    25 1
    59    24    62 1
    60    25    26 2
    61    27    28 1
    62    27    30 1
    63    27    32 1
    64    28    29 2
    65    28    63 1
    66    30    31 1
    67    30    64 1
    68    30    65 1
    69    31    32 1
    70    31    66 1
    71    31    67 1
    72    32    68 1
    73    32    69 1
@<TRIPOS>SUBSTRUCTURE
     1 CPX         1 TEMP              0 ****  ****    0 ROOT
