@<TRIPOS>MOLECULE
CPX
   73    76     1     0     0
SMALL
bcc


@<TRIPOS>ATOM
      1 O27         0.7340   -1.8210   -0.3920 o         1 CPX     -0.321100
      2 C17         0.8380   -7.1470   -8.7040 cx        1 CPX     -0.048400
      3 C16         1.4740   -6.2860   -9.7340 cx        1 CPX     -0.048400
      4 C12         1.6800   -5.9520   -8.2570 cx        1 CPX     -0.311700
      5 C26         1.4880   -0.9270   -0.0390 c         1 CPX      0.503100
      6 N4          1.9810   -0.8800    1.3660 n4        1 CPX     -0.663800
      7 C29         0.8830   -0.4280    2.3540 c3        1 CPX      0.136500
      8 C30         1.3670   -0.6750    3.7940 c3        1 CPX     -0.115900
      9 C32         2.0160    0.6200    4.2620 c3        1 CPX     -0.103400
     10 C31         1.5990    1.7180    3.2910 c3        1 CPX     -0.103400
     11 C28         0.6470    1.0850    2.2820 c3        1 CPX     -0.115900
     12 N3          1.9320    0.1300   -0.9860 n4        1 CPX     -0.671800
     13 C13         1.1390    0.1670   -2.3040 c3        1 CPX      0.074500
     14 C19         0.9010    1.6410   -2.7240 c3        1 CPX     -0.079700
     15 C22        -0.0890    1.6820   -3.8730 c3        1 CPX     -0.130600
     16 C18         0.3660    2.4860   -1.5820 c3        1 CPX     -0.130600
     17 C14         1.9980   -0.5770   -3.3790 c         1 CPX      0.656100
     18 O15         3.2390   -0.5730   -3.1880 o         1 CPX     -0.619100
     19 N2          1.4110   -1.1940   -4.4370 n         1 CPX     -0.423800
     20 C6          2.1710   -1.6810   -5.6000 c3        1 CPX      0.130700
     21 C8          1.1860   -2.6490   -6.3650 c3        1 CPX      0.107500
     22 C9         -0.0970   -2.7240   -5.5170 c3        1 CPX     -0.097400
     23 C7          0.0030   -1.5670   -4.5170 c3        1 CPX      0.076000
     24 N1          1.7760   -3.9850   -6.6690 n4        1 CPX     -0.690800
     25 C10         0.9700   -4.7880   -7.7200 c         1 CPX      0.601100
     26 O11        -0.1420   -4.3540   -7.9610 o         1 CPX     -0.405100
     27 C25         2.6610   -0.5960   -6.5650 cy        1 CPX     -0.253000
     28 C24         1.5990    0.3230   -7.1050 c         1 CPX      0.583900
     29 O5          0.4050    0.2100   -6.8240 o         1 CPX     -0.538100
     30 C23         3.9020    0.2160   -6.0720 cy        1 CPX     -0.075400
     31 C21         4.7330   -0.3010   -7.2610 cy        1 CPX     -0.084400
     32 C20         3.5420   -1.1570   -7.7300 cy        1 CPX     -0.075400
     33 H161        0.8370   -5.6170  -10.3450 hc        1 CPX      0.119700
     34 H162        2.3580   -6.6510  -10.2950 hc        1 CPX      0.119700
     35 H12         2.6750   -6.1630   -7.8180 hc        1 CPX      0.121700
     36 HN4         2.2550   -1.8460    1.6330 hn        1 CPX      0.496300
     37 H29        -0.0290   -1.0370    2.0940 hx        1 CPX      0.131700
     38 H301        0.4490   -0.9020    4.4080 hc        1 CPX      0.097700
     39 H302        2.0490   -1.5560    3.9060 hc        1 CPX      0.097700
     40 H321        1.6810    0.8620    5.3060 hc        1 CPX      0.092700
     41 H322        3.1310    0.5220    4.3000 hc        1 CPX      0.092700
     42 H311        2.4920    2.1580    2.7790 hc        1 CPX      0.092700
     43 H312        1.0890    2.5580    3.8330 hc        1 CPX      0.092700
     44 H281        0.7630    1.5130    1.2570 hc        1 CPX      0.097700
     45 H282       -0.4200    1.2680    2.5960 hc        1 CPX      0.097700
     46 HN3         2.9390   -0.0380   -1.2500 hn        1 CPX      0.509300
     47 H13         0.1490   -0.3460   -2.1290 hx        1 CPX      0.137700
     48 H19         1.8820    2.0720   -3.0780 hc        1 CPX      0.101700
     49 H221       -1.0380    1.1540   -3.6110 hc        1 CPX      0.074867
     50 H222       -0.3420    2.7520   -4.1010 hc        1 CPX      0.074867
     51 H223        0.3420    1.2430   -4.8060 hc        1 CPX      0.074867
     52 H181        1.1740    2.8370   -0.8930 hc        1 CPX      0.074867
     53 H182       -0.4240    1.9480   -1.0060 hc        1 CPX      0.074867
     54 H183       -0.1040    3.4180   -1.9990 hc        1 CPX      0.074867
     55 H6          3.0830   -2.2250   -5.2080 h1        1 CPX      0.088700
     56 H8          0.9310   -2.1770   -7.3660 hx        1 CPX      0.148700
     57 H91        -0.9970   -2.5970   -6.1770 hc        1 CPX      0.104700
     58 H92        -0.2040   -3.7000   -4.9790 hc        1 CPX      0.104700
     59 H71        -0.6060   -0.6910   -4.8880 h1        1 CPX      0.087700
     60 H72        -0.3760   -1.8860   -3.5080 h1        1 CPX      0.087700
     61 HN1         2.7290   -3.8610   -7.0320 hn        1 CPX      0.455800
     62 H24         1.9790    1.1160   -7.7890 h4        1 CPX      0.059200
     63 H231        3.7430    1.3160   -6.0720 hc        1 CPX      0.067700
     64 H232        4.2870   -0.1110   -5.0820 hc        1 CPX      0.067700
     65 H211        5.6320   -0.8870   -6.9710 hc        1 CPX      0.089200
     66 H212        5.0320    0.4890   -7.9850 hc        1 CPX      0.089200
     67 H201        3.1610   -0.8990   -8.7420 hc        1 CPX      0.067700
     68 H202        3.7350   -2.2480   -7.6680 hc        1 CPX      0.067700
     69 H171        1.2460   -8.1550   -8.4940 hc        1 CPX      0.119700
     70 H42         2.7960   -0.2630    1.4900 hn        1 CPX      0.496300
     71 H32         1.8620    1.0620   -0.5390 hn        1 CPX      0.509300
     72 H121        1.8280   -4.5520   -5.8180 hn        1 CPX      0.455800
     73 H172       -0.2600   -7.1020   -8.5660 hc        1 CPX      0.119700
@<TRIPOS>BOND
     1    1    5 2   
     2    2    3 1   
     3    2    4 1   
     4    2   69 1   
     5    2   73 1   
     6    3    4 1   
     7    3   33 1   
     8    3   34 1   
     9    4   25 1   
    10    4   35 1   
    11    5    6 1   
    12    5   12 1   
    13    6    7 1   
    14    6   36 1   
    15    6   70 1   
    16    7    8 1   
    17    7   11 1   
    18    7   37 1   
    19    8    9 1   
    20    8   38 1   
    21    8   39 1   
    22    9   10 1   
    23    9   40 1   
    24    9   41 1   
    25   10   11 1   
    26   10   42 1   
    27   10   43 1   
    28   11   44 1   
    29   11   45 1   
    30   12   13 1   
    31   12   46 1   
    32   12   71 1   
    33   13   14 1   
    34   13   17 1   
    35   13   47 1   
    36   14   15 1   
    37   14   16 1   
    38   14   48 1   
    39   15   49 1   
    40   15   50 1   
    41   15   51 1   
    42   16   52 1   
    43   16   53 1   
    44   16   54 1   
    45   17   18 2   
    46   17   19 1   
    47   19   20 1   
    48   19   23 1   
    49   20   21 1   
    50   20   27 1   
    51   20   55 1   
    52   21   22 1   
    53   21   24 1   
    54   21   56 1   
    55   22   23 1   
    56   22   57 1   
    57   22   58 1   
    58   23   59 1   
    59   23   60 1   
    60   24   25 1   
    61   24   61 1   
    62   24   72 1   
    63   25   26 2   
    64   27   28 1   
    65   27   30 1   
    66   27   32 1   
    67   28   29 2   
    68   28   62 1   
    69   30   31 1   
    70   30   63 1   
    71   30   64 1   
    72   31   32 1   
    73   31   65 1   
    74   31   66 1   
    75   32   67 1   
    76   32   68 1   
@<TRIPOS>SUBSTRUCTURE
     1 CPX         1 TEMP              0 ****  ****    0 ROOT
