@<TRIPOS>MOLECULE
CPY
   44    45     1     0     0
SMALL
bcc


@<TRIPOS>ATOM
      1 N          -0.2280    0.2130   -0.3480 n4        1 CPY     -0.836600
      2 CA          0.8910   -0.6420    0.1640 c3        1 CPY      0.132500
      3 CB          1.2080   -0.3520    1.6330 c3        1 CPY     -0.111400
      4 CG          1.4830    1.1070    1.9570 c3        1 CPY     -0.077700
      5 CD1         1.8590    1.2180    3.4330 c3        1 CPY     -0.076900
      6 CD2         2.5880    1.6950    1.0910 c3        1 CPY     -0.076900
      7 CE1         2.1440    2.6550    3.8160 c3        1 CPY     -0.078900
      8 CE2         2.8810    3.1310    1.4760 c3        1 CPY     -0.078900
      9 CZ          3.2290    3.2520    2.9440 c3        1 CPY     -0.081400
     10 CH          0.5620   -2.1470    0.0020 c3        1 CPY      0.107100
     11 OH         -0.6950   -2.3490    0.6320 oh        1 CPY     -0.616800
     12 CM          0.4360   -2.6220   -1.4650 c3        1 CPY      0.044000
     13 N1          1.6150   -2.4530   -2.2780 n         1 CPY     -0.349000
     14 C2          1.8040   -1.2580   -3.0080 c         1 CPY      0.700700
     15 O2          1.0180   -0.2980   -2.7960 o         1 CPY     -0.740500
     16 C3          2.9210   -1.2050   -3.9420 cc        1 CPY     -0.244200
     17 C4          3.7590   -2.2650   -4.0910 cd        1 CPY     -0.018000
     18 C5          3.5460   -3.4530   -3.3250 cd        1 CPY     -0.203000
     19 C6          2.4860   -3.5200   -2.4610 cc        1 CPY     -0.009400
     20 HN1        -0.3510    0.0380   -1.3600 hn        1 CPY      0.469467
     21 HN2        -1.0910   -0.0170    0.1520 hn        1 CPY      0.469467
     22 HA          1.7940   -0.4010   -0.4770 hx        1 CPY      0.125700
     23 HB1         2.1190   -0.9590    1.8910 hc        1 CPY      0.084700
     24 HB2         0.3630   -0.7250    2.2740 hc        1 CPY      0.084700
     25 HG          0.5450    1.7140    1.8060 hc        1 CPY      0.033700
     26 HD11        1.0210    0.8190    4.0620 hc        1 CPY      0.043700
     27 HD12        2.7660    0.5890    3.6330 hc        1 CPY      0.043700
     28 HD21        2.2920    1.6610    0.0090 hc        1 CPY      0.043700
     29 HD22        3.5170    1.0780    1.2070 hc        1 CPY      0.043700
     30 HE11        2.4610    2.6940    4.8910 hc        1 CPY      0.051700
     31 HE12        1.2070    3.2640    3.7200 hc        1 CPY      0.051700
     32 HE21        1.9870    3.7710    1.2500 hc        1 CPY      0.051700
     33 HE22        3.7330    3.5130    0.8540 hc        1 CPY      0.051700
     34 HCZ1        4.2020    2.7280    3.1440 hc        1 CPY      0.055700
     35 HCZ2        3.3700    4.3330    3.2070 hc        1 CPY      0.055700
     36 HH          1.3730   -2.7250    0.5270 h1        1 CPY      0.085700
     37 HO         -0.7910   -3.2940    0.8100 ho        1 CPY      0.445000
     38 HM1        -0.4220   -2.0770   -1.9560 h1        1 CPY      0.082700
     39 HM2         0.1590   -3.7170   -1.4330 h1        1 CPY      0.082700
     40 HC3         3.0220   -0.2680   -4.5100 ha        1 CPY      0.182000
     41 HC4         4.6050   -2.2320   -4.7980 ha        1 CPY      0.167000
     42 HC5         4.2260   -4.3090   -3.4390 ha        1 CPY      0.174000
     43 HC6         2.2720   -4.4290   -1.8690 h4        1 CPY      0.164000
     44 HN3         0.0080    1.1990   -0.2030 hn        1 CPY      0.469467
@<TRIPOS>BOND
     1    1    2 1   
     2    1   20 1   
     3    1   21 1   
     4    1   44 1   
     5    2    3 1   
     6    2   10 1   
     7    2   22 1   
     8    3    4 1   
     9    3   23 1   
    10    3   24 1   
    11    4    5 1   
    12    4    6 1   
    13    4   25 1   
    14    5    7 1   
    15    5   26 1   
    16    5   27 1   
    17    6    8 1   
    18    6   28 1   
    19    6   29 1   
    20    7    9 1   
    21    7   30 1   
    22    7   31 1   
    23    8    9 1   
    24    8   32 1   
    25    8   33 1   
    26    9   34 1   
    27    9   35 1   
    28   10   11 1   
    29   10   12 1   
    30   10   36 1   
    31   11   37 1   
    32   12   13 1   
    33   12   38 1   
    34   12   39 1   
    35   13   14 1   
    36   13   19 1   
    37   14   15 2   
    38   14   16 1   
    39   16   17 2   
    40   16   40 1   
    41   17   18 1   
    42   17   41 1   
    43   18   19 2   
    44   18   42 1   
    45   19   43 1   
@<TRIPOS>SUBSTRUCTURE
     1 CPY         1 TEMP              0 ****  ****    0 ROOT
