@<TRIPOS>MOLECULE
CPZ
   19    20     1     0     0
SMALL
bcc


@<TRIPOS>ATOM
      1 C11         0.0050   -0.0490    0.0210 ca        1 CPZ     -0.117000
      2 C10         1.3960   -0.0660   -0.0060 ca        1 CPZ     -0.118000
      3 C9          2.1120   -0.0120    1.1940 ca        1 CPZ      0.015400
      4 C8          1.4390    0.0550    2.4170 ca        1 CPZ     -0.118000
      5 C7          0.0460    0.0690    2.4380 ca        1 CPZ     -0.117000
      6 C6         -0.6850    0.0200    1.2430 ca        1 CPZ      0.000000
      7 C4         -2.1310    0.0270    1.2350 cc        1 CPZ     -0.177600
      8 C2         -3.0270   -0.4440    0.2430 cd        1 CPZ      0.318200
      9 N1         -4.3400   -0.2390    0.6450 nd        1 CPZ     -0.666000
     10 C5         -4.2670    0.3500    1.8610 cc        1 CPZ      0.397400
     11 N3         -2.9420    0.5280    2.2650 na        1 CPZ     -0.310900
     12 CL          3.8110   -0.0290    1.1660 cl        1 CPZ     -0.090400
     13 H11        -0.5610   -0.0860   -0.9220 ha        1 CPZ      0.137500
     14 H10         1.9270   -0.1200   -0.9690 ha        1 CPZ      0.149500
     15 H8          2.0030    0.0920    3.3610 ha        1 CPZ      0.149500
     16 H7         -0.4690    0.1060    3.4090 ha        1 CPZ      0.137500
     17 H2         -2.7850   -0.9160   -0.7090 h4        1 CPZ      0.044100
     18 H5         -5.1200    0.6560    2.4760 h5        1 CPZ      0.063100
     19 HN3        -2.6230    0.9490    3.0960 hn        1 CPZ      0.302700
@<TRIPOS>BOND
     1    1    2 ar  
     2    1    6 ar  
     3    1   13 1   
     4    2    3 ar  
     5    2   14 1   
     6    3    4 ar  
     7    3   12 1   
     8    4    5 ar  
     9    4   15 1   
    10    5    6 ar  
    11    5   16 1   
    12    6    7 1   
    13    7    8 2   
    14    7   11 1   
    15    8    9 1   
    16    8   17 1   
    17    9   10 2   
    18   10   11 1   
    19   10   18 1   
    20   11   19 1   
@<TRIPOS>SUBSTRUCTURE
     1 CPZ         1 TEMP              0 ****  ****    0 ROOT
