@<TRIPOS>MOLECULE
molecule
   19    20     1     0     0
SMALL
bcc


@<TRIPOS>ATOM
      1 C11          0.0000     0.0000     0.0000 ca         1 CPZ      -0.113000
      2 C10          1.3950     0.0000     0.0000 ca         1 CPZ      -0.116500
      3 C9           2.0920     0.0000     1.2090 ca         1 CPZ       0.022400
      4 C8           1.3940    -0.0000     2.4160 ca         1 CPZ      -0.116500
      5 C7          -0.0010    -0.0000     2.4160 ca         1 CPZ      -0.113000
      6 C6          -0.6970    -0.0000     1.2070 ca         1 CPZ      -0.006000
      7 C4          -2.1400     0.0000     1.2060 cc         1 CPZ      -0.175600
      8 C2          -3.0490    -0.5140     0.3150 cd         1 CPZ       0.311200
      9 N1          -4.3360    -0.2730     0.7300 nd         1 CPZ      -0.661000
     10 C5          -4.2050     0.3810     1.8630 cc         1 CPZ       0.392400
     11 N3          -2.8920     0.5700     2.1920 na         1 CPZ      -0.299900
     12 Cl           3.8130    -0.0020     1.2090 cl         1 CPZ      -0.097400
     13 H11         -0.5420    -0.0000    -0.9380 ha         1 CPZ       0.139000
     14 H10          1.9370     0.0000    -0.9380 ha         1 CPZ       0.147000
     15 H8           1.9350    -0.0000     3.3540 ha         1 CPZ       0.147000
     16 H7          -0.5430    -0.0010     3.3540 ha         1 CPZ       0.139000
     17 H2          -2.7870    -1.0390    -0.5950 h4         1 CPZ       0.038100
     18 H5          -5.0380     0.7280     2.4630 h5         1 CPZ       0.059100
     19 HN3         -2.5460     1.0390     3.0050 hn         1 CPZ       0.302700
@<TRIPOS>BOND
     1     1     2 ar
     2     1     6 ar
     3     1    13 1
     4     2     3 ar
     5     2    14 1
     6     3     4 ar
     7     3    12 1
     8     4     5 ar
     9     4    15 1
    10     5     6 ar
    11     5    16 1
    12     6     7 1
    13     7     8 2
    14     7    11 1
    15     8     9 1
    16     8    17 1
    17     9    10 2
    18    10    11 1
    19    10    18 1
    20    11    19 1
@<TRIPOS>SUBSTRUCTURE
     1 CPZ         1 TEMP              0 ****  ****    0 ROOT
