@<TRIPOS>MOLECULE
CQ0
   50    53     1     0     0
SMALL
bcc


@<TRIPOS>ATOM
      1 CAA          0.0000     0.0000     0.0000 ca         1 CQ0      -0.110000
      2 CAB          1.3820     0.0000     0.0000 ca         1 CQ0      -0.048300
      3 CAC          2.0830     0.0000     1.2060 ca         1 CQ0      -0.055000
      4 CAD          1.3880     0.0020     2.4120 ca         1 CQ0      -0.015000
      5 CAE         -0.0060     0.0040     2.4070 ca         1 CQ0      -0.163600
      6 CAF         -0.6960     0.0070     1.1930 ca         1 CQ0      -0.076000
      7 CAG          3.5650    -0.0010     1.2030 cc         1 CQ0      -0.060000
      8 CAH          4.2620    -1.1560     1.5050 cd         1 CQ0      -0.004000
      9 CAI          5.6670    -1.1260     1.4940 cd         1 CQ0      -0.279300
     10 NAJ          6.3240     0.0400     1.1840 na         1 CQ0       0.509800
     11 CAK          5.6270     1.1750     0.8850 cd         1 CQ0      -0.274300
     12 CAL          4.2800     1.1780     0.8840 cc         1 CQ0      -0.069000
     13 NAM          6.5970    -2.0390     1.7330 nc         1 CQ0      -0.082000
     14 NAN          7.7610    -1.5110     1.5900 nc         1 CQ0      -0.292700
     15 CAO          7.6520    -0.2510     1.2580 cd         1 CQ0       0.066800
     16 CAP          8.7890     0.7060     1.0010 c3         1 CQ0      -0.040300
     17 CAQ          2.1330    -0.0020    -1.3070 c3         1 CQ0       0.052200
     18 CAR         -0.7510     0.0060     3.6830 c          1 CQ0       0.597700
     19 NAS         -2.0990     0.0060     3.6760 ns         1 CQ0      -0.143900
     20 CAT         -2.8380     0.0090     4.9410 cx         1 CQ0      -0.046300
     21 CAU         -4.2570     0.5810     4.9290 cx         1 CQ0      -0.093900
     22 CAV         -4.0420    -0.9290     5.0580 cx         1 CQ0      -0.093900
     23 OAW         -0.1500     0.0060     4.7390 o          1 CQ0      -0.645100
     24 CAX          8.7020     1.8750     1.9840 c3         1 CQ0       0.000233
     25 CAY         10.1200    -0.0230     1.1900 c3         1 CQ0       0.000233
     26 CAZ          8.6950     1.2360    -0.4310 c3         1 CQ0       0.000233
     27 HAA         -0.5400     0.0020    -0.9390 ha         1 CQ0       0.111000
     28 HAD          1.9280     0.0010     3.3510 ha         1 CQ0       0.134000
     29 HAF         -1.7790     0.0080     1.1870 ha         1 CQ0       0.101000
     30 HAH          3.7420    -2.0090     1.9240 ha         1 CQ0       0.135000
     31 HAK          6.1650     2.0830     0.6400 h4         1 CQ0       0.149000
     32 HAL          3.7430     2.0910     0.6590 ha         1 CQ0       0.124000
     33 HAQ          1.4510    -0.2400    -2.1140 hc         1 CQ0       0.013700
     34 HAQA         2.5660     0.9760    -1.4760 hc         1 CQ0       0.013700
     35 HAQB         2.9210    -0.7440    -1.2690 hc         1 CQ0       0.013700
     36 HNAS        -2.5950     0.0200     2.8070 hn         1 CQ0       0.174500
     37 HAT         -2.2940     0.1650     5.8640 h1         1 CQ0       0.098700
     38 HAU         -4.5630     1.0880     5.8360 hc         1 CQ0       0.048450
     39 HAUA        -4.6150     0.9210     3.9650 hc         1 CQ0       0.048450
     40 HAV         -4.2180    -1.3430     6.0430 hc         1 CQ0       0.048450
     41 HAVA        -4.2700    -1.5100     4.1730 hc         1 CQ0       0.048450
     42 HAX          8.3780     1.5100     2.9510 hc         1 CQ0       0.011478
     43 HAXA         7.9900     2.6040     1.6160 hc         1 CQ0       0.011478
     44 HAXB         9.6760     2.3380     2.0800 hc         1 CQ0       0.011478
     45 HAY         10.1850    -0.3980     2.2040 hc         1 CQ0       0.011478
     46 HAYA        10.1810    -0.8500     0.4940 hc         1 CQ0       0.011478
     47 HAYB        10.9370     0.6640     1.0060 hc         1 CQ0       0.011478
     48 HAZ          8.3660     0.4410    -1.0890 hc         1 CQ0       0.011478
     49 HAZA         9.6690     1.5880    -0.7500 hc         1 CQ0       0.011478
     50 HAZB         7.9850     2.0530    -0.4680 hc         1 CQ0       0.011478
@<TRIPOS>BOND
     1     1     2 ar  
     2     1     6 ar  
     3     1    27 1   
     4     2     3 ar  
     5     2    17 1   
     6     3     4 ar  
     7     3     7 1   
     8     4     5 ar  
     9     4    28 1   
    10     5     6 ar  
    11     5    18 1   
    12     6    29 1   
    13     7     8 2   
    14     7    12 1   
    15     8     9 1   
    16     8    30 1   
    17     9    10 1   
    18     9    13 2   
    19    10    11 1   
    20    10    15 1   
    21    11    12 2   
    22    11    31 1   
    23    12    32 1   
    24    13    14 1   
    25    14    15 2   
    26    15    16 1   
    27    16    24 1   
    28    16    25 1   
    29    16    26 1   
    30    17    33 1   
    31    17    34 1   
    32    17    35 1   
    33    18    19 1   
    34    18    23 2   
    35    19    20 1   
    36    19    36 1   
    37    20    21 1   
    38    20    22 1   
    39    20    37 1   
    40    21    22 1   
    41    21    38 1   
    42    21    39 1   
    43    22    40 1   
    44    22    41 1   
    45    24    42 1   
    46    24    43 1   
    47    24    44 1   
    48    25    45 1   
    49    25    46 1   
    50    25    47 1   
    51    26    48 1   
    52    26    49 1   
    53    26    50 1   
@<TRIPOS>SUBSTRUCTURE
     1 CQ0         1 TEMP              0 ****  ****    0 ROOT
