@<TRIPOS>MOLECULE
CQ3
   48    50     1     0     0
SMALL
bcc


@<TRIPOS>ATOM
      1 C            0.0000     0.0000     0.0000 c3         1 CQ3       0.021900
      2 N            3.3580    -0.0000     1.6670 ns         1 CQ3      -0.037100
      3 O            1.2450    -0.0000     2.3420 o          1 CQ3      -0.625100
      4 Cl           7.3310    -2.6350     0.2960 cl         1 CQ3      -0.010400
      5 C1           1.5290     0.0000     0.0000 c3         1 CQ3      -0.099400
      6 N1           5.8760    -1.0080     2.3590 nu         1 CQ3      -0.293300
      7 O1          13.5800     1.5930     5.6620 os         1 CQ3      -0.409600
      8 C2           2.0320     0.0000     1.4200 c          1 CQ3       0.559100
      9 N2           9.9320    -1.0920     2.8210 nb         1 CQ3      -0.740000
     10 C3           3.8260     0.1200     2.9810 ca         1 CQ3      -0.120400
     11 N3           7.8400    -0.3860     3.5080 nb         1 CQ3      -0.746000
     12 C4           3.0410     0.7340     3.9460 ca         1 CQ3      -0.100000
     13 N4           9.7330     0.2770     4.7040 nu         1 CQ3      -0.470900
     14 C5           3.5050     0.8510     5.2430 ca         1 CQ3      -0.098000
     15 C6           4.7520     0.3600     5.5830 ca         1 CQ3      -0.098000
     16 C7           5.5410    -0.2530     4.6280 ca         1 CQ3      -0.111000
     17 C8           5.0810    -0.3820     3.3260 ca         1 CQ3      -0.034400
     18 C9           7.2540    -1.0410     2.5100 ca         1 CQ3       0.577200
     19 C10          8.0480    -1.7640     1.6150 ca         1 CQ3      -0.430200
     20 C11          9.4170    -1.7680     1.8040 ca         1 CQ3       0.541200
     21 C12          9.1550    -0.4160     3.6540 ca         1 CQ3       0.759900
     22 C13         11.1870     0.2570     4.8830 c3         1 CQ3       0.136500
     23 C14         11.5260     0.5230     6.3530 c3         1 CQ3      -0.083400
     24 C15         13.0460     0.5790     6.5160 c3         1 CQ3       0.220900
     25 C16         13.3350     1.3720     4.2710 c3         1 CQ3       0.220900
     26 C17         11.8250     1.3490     4.0180 c3         1 CQ3      -0.083400
     27 H           -0.3610    -0.0630    -1.0190 hc         1 CQ3       0.010700
     28 HA          -0.3610     0.9140     0.4550 hc         1 CQ3       0.010700
     29 HB          -0.3610    -0.8510     0.5640 hc         1 CQ3       0.010700
     30 HN           4.0080    -0.0450     0.9070 hn         1 CQ3       0.162500
     31 H1           1.8900     0.8840    -0.5110 hc         1 CQ3       0.025700
     32 H1A          1.8900    -0.8840    -0.5110 hc         1 CQ3       0.025700
     33 HN1          5.4480    -1.4620     1.5770 hn         1 CQ3       0.290800
     34 H4           2.0640     1.1200     3.6830 ha         1 CQ3       0.154000
     35 HN4          9.1580     0.7930     5.3400 hn         1 CQ3       0.302800
     36 H5           2.8900     1.3310     5.9950 ha         1 CQ3       0.104000
     37 H6           5.1120     0.4570     6.6000 ha         1 CQ3       0.101000
     38 H7           6.5180    -0.6380     4.8980 ha         1 CQ3       0.150000
     39 H11         10.0620    -2.3170     1.1290 h4         1 CQ3      -0.012900
     40 H13         11.5800    -0.7090     4.5920 h1         1 CQ3       0.058700
     41 H14         11.0960     1.4700     6.6570 hc         1 CQ3       0.029950
     42 H14A        11.1270    -0.2760     6.9660 hc         1 CQ3       0.029950
     43 H15         13.2900     0.8110     7.5460 h1         1 CQ3       0.009450
     44 H15A        13.4730    -0.3800     6.2460 h1         1 CQ3       0.009450
     45 H16         13.7640     0.4210     3.9760 h1         1 CQ3       0.009450
     46 H16A        13.7840     2.1710     3.6950 h1         1 CQ3       0.009450
     47 H17         11.6370     1.1370     2.9730 hc         1 CQ3       0.029950
     48 H17A        11.4010     2.3110     4.2800 hc         1 CQ3       0.029950
@<TRIPOS>BOND
     1     1     5 1   
     2     1    27 1   
     3     1    28 1   
     4     1    29 1   
     5     2     8 1   
     6     2    10 1   
     7     2    30 1   
     8     3     8 2   
     9     4    19 1   
    10     5     8 1   
    11     5    31 1   
    12     5    32 1   
    13     6    17 1   
    14     6    18 1   
    15     6    33 1   
    16     7    24 1   
    17     7    25 1   
    18     9    20 ar  
    19     9    21 ar  
    20    10    12 ar  
    21    10    17 ar  
    22    11    18 ar  
    23    11    21 ar  
    24    12    14 ar  
    25    12    34 1   
    26    13    21 1   
    27    13    22 1   
    28    13    35 1   
    29    14    15 ar  
    30    14    36 1   
    31    15    16 ar  
    32    15    37 1   
    33    16    17 ar  
    34    16    38 1   
    35    18    19 ar  
    36    19    20 ar  
    37    20    39 1   
    38    22    23 1   
    39    22    26 1   
    40    22    40 1   
    41    23    24 1   
    42    23    41 1   
    43    23    42 1   
    44    24    43 1   
    45    24    44 1   
    46    25    26 1   
    47    25    45 1   
    48    25    46 1   
    49    26    47 1   
    50    26    48 1   
@<TRIPOS>SUBSTRUCTURE
     1 CQ3         1 TEMP              0 ****  ****    0 ROOT
