@<TRIPOS>MOLECULE
CQ5
   71    74     1     0     0
SMALL
bcc


@<TRIPOS>ATOM
      1 N            0.0000     0.0000     0.0000 nc         1 CQ5      -0.598300
      2 C           -0.0220     0.0020     2.3570 cd         1 CQ5      -0.424200
      3 O            2.0150     0.0010     3.3810 o          1 CQ5      -0.709500
      4 O2           5.3520     4.9960    -1.8610 o          1 CQ5      -0.647100
      5 C17          7.4690     4.3510    -1.0420 c3         1 CQ5      -0.102400
      6 C18          7.9740     5.2190    -2.1980 c3         1 CQ5       0.023600
      7 C25          7.5790     6.6760    -1.9500 c3         1 CQ5      -0.001100
      8 C19          9.4740     5.1140    -2.2870 ca         1 CQ5      -0.089300
      9 C24         10.2590     5.4900    -1.2130 ca         1 CQ5      -0.100000
     10 C23         11.6350     5.3930    -1.2950 ca         1 CQ5      -0.099000
     11 C22         12.2280     4.9200    -2.4500 ca         1 CQ5      -0.105000
     12 C21         11.4430     4.5420    -3.5230 ca         1 CQ5      -0.099000
     13 C20         10.0660     4.6340    -3.4400 ca         1 CQ5      -0.100000
     14 N4           5.2930     3.6590    -0.0930 n          1 CQ5      -0.158800
     15 C13          6.0180     2.8880     0.9260 c3         1 CQ5       0.052500
     16 C12          5.5070     1.4430     0.9070 c3         1 CQ5      -0.064400
     17 C14          3.8240     3.6560    -0.0670 c3         1 CQ5       0.052500
     18 C15          3.3320     2.2060    -0.0760 c3         1 CQ5      -0.064400
     19 C5           3.9870     1.4420     1.0820 c3         1 CQ5       0.150800
     20 O1           3.6490     2.0800     2.3150 oh         1 CQ5      -0.568800
     21 C4           3.4770    -0.0010     1.0990 c3         1 CQ5      -0.012000
     22 N1           2.0120     0.0000     1.1470 n          1 CQ5       0.063700
     23 C3           1.3790     0.0010     2.3380 c          1 CQ5       0.632700
     24 C2           1.3040     0.0000     0.0000 cd         1 CQ5       0.360800
     25 C1          -0.6980     0.0010     1.1480 cc         1 CQ5       0.261600
     26 N2          -2.0770     0.0020     1.1220 nu         1 CQ5      -0.373000
     27 C6          -2.7860     0.0010    -0.1600 c3         1 CQ5       0.150800
     28 C7          -4.2950     0.0020     0.0930 c3         1 CQ5       0.141800
     29 N3          -5.0060     0.0010    -1.1930 n3         1 CQ5      -0.539600
     30 C11         -6.4480    -0.2370    -1.0000 c3         1 CQ5       0.150300
     31 C10         -7.1980     0.9530    -1.6350 c3         1 CQ5      -0.035900
     32 C9          -6.1670     1.5130    -2.6500 c3         1 CQ5      -0.035900
     33 C8          -4.8320     1.2910    -1.8950 c3         1 CQ5       0.150300
     34 H1          -0.5640     0.0030     3.2950 ha         1 CQ5       0.149000
     35 H2           7.8400     4.7470    -0.1050 hc         1 CQ5       0.034200
     36 H3           7.8240     3.3360    -1.1720 hc         1 CQ5       0.034200
     37 H4           7.5320     4.8780    -3.1260 hc         1 CQ5       0.045700
     38 H5           7.3690     6.8200    -0.8970 hc         1 CQ5       0.011700
     39 H6           6.6950     6.9140    -2.5310 hc         1 CQ5       0.011700
     40 H7           8.3920     7.3270    -2.2480 hc         1 CQ5       0.011700
     41 H8           9.7950     5.8610    -0.3070 ha         1 CQ5       0.107000
     42 H9          12.2490     5.6880    -0.4530 ha         1 CQ5       0.101500
     43 H10         13.3060     4.8460    -2.5140 ha         1 CQ5       0.102000
     44 H11         11.9070     4.1690    -4.4280 ha         1 CQ5       0.101500
     45 H12          9.4510     4.3380    -4.2820 ha         1 CQ5       0.107000
     46 H13          7.0780     2.9000     0.7030 h1         1 CQ5       0.038200
     47 H14          5.8420     3.3220     1.9020 h1         1 CQ5       0.038200
     48 H15          5.7620     0.9830    -0.0400 hc         1 CQ5       0.030950
     49 H16          5.9640     0.8890     1.7180 hc         1 CQ5       0.030950
     50 H17          3.4760     4.1510     0.8320 h1         1 CQ5       0.038200
     51 H18          3.4460     4.1720    -0.9420 h1         1 CQ5       0.038200
     52 H19          2.2550     2.1900     0.0440 hc         1 CQ5       0.030950
     53 H20          3.6030     1.7390    -1.0150 hc         1 CQ5       0.030950
     54 H21          4.2160     1.7640     2.9990 ho         1 CQ5       0.407000
     55 H22          3.8080    -0.5120     0.2030 h1         1 CQ5       0.048200
     56 H23          3.8660    -0.5110     1.9720 h1         1 CQ5       0.048200
     57 H24          1.8320    -0.0010    -0.9460 h5         1 CQ5       0.008800
     58 H25         -2.5940    -0.0230     1.9790 hn         1 CQ5       0.297800
     59 H26         -2.5140    -0.8830    -0.7220 h1         1 CQ5       0.033700
     60 H27         -2.5140     0.8860    -0.7230 h1         1 CQ5       0.033700
     61 H28         -4.5670     0.8870     0.6550 h1         1 CQ5       0.011200
     62 H29         -4.5670    -0.8820     0.6560 h1         1 CQ5       0.011200
     63 H31         -6.6730    -0.2900     0.0580 h1         1 CQ5       0.016700
     64 H32         -6.7380    -1.1580    -1.4910 h1         1 CQ5       0.016700
     65 H33         -8.0900     0.6120    -2.1470 hc         1 CQ5       0.021450
     66 H34         -7.4380     1.6970    -0.8850 hc         1 CQ5       0.021450
     67 H35         -6.1870     0.9460    -3.5730 hc         1 CQ5       0.021450
     68 H36         -6.3370     2.5680    -2.8300 hc         1 CQ5       0.021450
     69 H37         -4.0100     1.2290    -2.5970 h1         1 CQ5       0.016700
     70 H38         -4.6680     2.0880    -1.1800 h1         1 CQ5       0.016700
     71 C16          5.9620     4.3590    -1.0290 c          1 CQ5       0.589100
@<TRIPOS>BOND
     1     1    24 2   
     2     1    25 1   
     3     2    23 1   
     4     2    25 2   
     5     2    34 1   
     6     3    23 2   
     7     4    71 2   
     8     5     6 1   
     9     5    35 1   
    10     5    36 1   
    11     5    71 1   
    12     6     7 1   
    13     6     8 1   
    14     6    37 1   
    15     7    38 1   
    16     7    39 1   
    17     7    40 1   
    18     8     9 ar  
    19     8    13 ar  
    20     9    10 ar  
    21     9    41 1   
    22    10    11 ar  
    23    10    42 1   
    24    11    12 ar  
    25    11    43 1   
    26    12    13 ar  
    27    12    44 1   
    28    13    45 1   
    29    14    15 1   
    30    14    17 1   
    31    14    71 1   
    32    15    16 1   
    33    15    46 1   
    34    15    47 1   
    35    16    19 1   
    36    16    48 1   
    37    16    49 1   
    38    17    18 1   
    39    17    50 1   
    40    17    51 1   
    41    18    19 1   
    42    18    52 1   
    43    18    53 1   
    44    19    20 1   
    45    19    21 1   
    46    20    54 1   
    47    21    22 1   
    48    21    55 1   
    49    21    56 1   
    50    22    23 1   
    51    22    24 1   
    52    24    57 1   
    53    25    26 1   
    54    26    27 1   
    55    26    58 1   
    56    27    28 1   
    57    27    59 1   
    58    27    60 1   
    59    28    29 1   
    60    28    61 1   
    61    28    62 1   
    62    29    30 1   
    63    29    33 1   
    64    30    31 1   
    65    30    63 1   
    66    30    64 1   
    67    31    32 1   
    68    31    65 1   
    69    31    66 1   
    70    32    33 1   
    71    32    67 1   
    72    32    68 1   
    73    33    69 1   
    74    33    70 1   
@<TRIPOS>SUBSTRUCTURE
     1 CQ5         1 TEMP              0 ****  ****    0 ROOT
