@<TRIPOS>MOLECULE
molecule
   71    74     1     0     0
SMALL
bcc


@<TRIPOS>ATOM
      1 N            0.0000     0.0000     0.0000 nc         1 CQ5      -0.703300
      2 C           -0.0220     0.0020     2.3570 cc         1 CQ5      -0.424200
      3 O            2.0150     0.0010     3.3810 o          1 CQ5      -0.662500
      4 O2           5.3520     4.9960    -1.8610 o          1 CQ5      -0.611100
      5 C17          7.4690     4.3510    -1.0420 c3         1 CQ5      -0.150400
      6 C18          7.9740     5.2190    -2.1980 c3         1 CQ5      -0.012400
      7 C25          7.5790     6.6760    -1.9500 c3         1 CQ5      -0.083100
      8 C19          9.4740     5.1140    -2.2870 ca         1 CQ5      -0.082300
      9 C24         10.2590     5.4900    -1.2130 ca         1 CQ5      -0.125500
     10 C23         11.6350     5.3930    -1.2950 ca         1 CQ5      -0.126500
     11 C22         12.2280     4.9200    -2.4500 ca         1 CQ5      -0.131000
     12 C21         11.4430     4.5420    -3.5230 ca         1 CQ5      -0.126500
     13 C20         10.0660     4.6340    -3.4400 ca         1 CQ5      -0.125500
     14 N4           5.2930     3.6590    -0.0930 n          1 CQ5      -0.493800
     15 C13          6.0180     2.8880     0.9260 c3         1 CQ5       0.110000
     16 C12          5.5070     1.4430     0.9070 c3         1 CQ5      -0.110400
     17 C14          3.8240     3.6560    -0.0670 c3         1 CQ5       0.110000
     18 C15          3.3320     2.2060    -0.0760 c3         1 CQ5      -0.110400
     19 C5           3.9870     1.4420     1.0820 c3         1 CQ5       0.136800
     20 O1           3.6490     2.0800     2.3150 oh         1 CQ5      -0.581800
     21 C4           3.4770    -0.0010     1.0990 c3         1 CQ5       0.062000
     22 N1           2.0120     0.0000     1.1470 n          1 CQ5      -0.359300
     23 C3           1.3790     0.0010     2.3380 c          1 CQ5       0.712700
     24 C2           1.3040     0.0000     0.0000 cd         1 CQ5       0.531800
     25 C1          -0.6980     0.0010     1.1480 cd         1 CQ5       0.443600
     26 N2          -2.0770     0.0020     1.1220 nu         1 CQ5      -0.793000
     27 C6          -2.7860     0.0010    -0.1600 c3         1 CQ5       0.235800
     28 C7          -4.2950     0.0020     0.0930 c3         1 CQ5       0.138800
     29 N3          -5.0060     0.0010    -1.1930 n3         1 CQ5      -0.713600
     30 C11         -6.4480    -0.2370    -1.0000 c3         1 CQ5       0.150800
     31 C10         -7.1980     0.9530    -1.6350 c3         1 CQ5      -0.097900
     32 C9          -6.1670     1.5130    -2.6500 c3         1 CQ5      -0.097900
     33 C8          -4.8320     1.2910    -1.8950 c3         1 CQ5       0.150800
     34 H1          -0.5640     0.0030     3.2950 ha         1 CQ5       0.163000
     35 H2           7.8400     4.7470    -0.1050 hc         1 CQ5       0.062200
     36 H3           7.8240     3.3360    -1.1720 hc         1 CQ5       0.062200
     37 H4           7.5320     4.8780    -3.1260 hc         1 CQ5       0.072700
     38 H5           7.3690     6.8200    -0.8970 hc         1 CQ5       0.042367
     39 H6           6.6950     6.9140    -2.5310 hc         1 CQ5       0.042367
     40 H7           8.3920     7.3270    -2.2480 hc         1 CQ5       0.042367
     41 H8           9.7950     5.8610    -0.3070 ha         1 CQ5       0.130500
     42 H9          12.2490     5.6880    -0.4530 ha         1 CQ5       0.128500
     43 H10         13.3060     4.8460    -2.5140 ha         1 CQ5       0.129000
     44 H11         11.9070     4.1690    -4.4280 ha         1 CQ5       0.128500
     45 H12          9.4510     4.3380    -4.2820 ha         1 CQ5       0.130500
     46 H13          7.0780     2.9000     0.7030 h1         1 CQ5       0.065450
     47 H14          5.8420     3.3220     1.9020 h1         1 CQ5       0.065450
     48 H15          5.7620     0.9830    -0.0400 hc         1 CQ5       0.057450
     49 H16          5.9640     0.8890     1.7180 hc         1 CQ5       0.057450
     50 H17          3.4760     4.1510     0.8320 h1         1 CQ5       0.065450
     51 H18          3.4460     4.1720    -0.9420 h1         1 CQ5       0.065450
     52 H19          2.2550     2.1900     0.0440 hc         1 CQ5       0.057450
     53 H20          3.6030     1.7390    -1.0150 hc         1 CQ5       0.057450
     54 H21          4.2160     1.7640     2.9990 ho         1 CQ5       0.414000
     55 H22          3.8080    -0.5120     0.2030 h1         1 CQ5       0.072700
     56 H23          3.8660    -0.5110     1.9720 h1         1 CQ5       0.072700
     57 H24          1.8320    -0.0010    -0.9460 h5         1 CQ5       0.057800
     58 H25         -2.5940    -0.0230     1.9790 hn         1 CQ5       0.451800
     59 H26         -2.5140    -0.8830    -0.7220 h1         1 CQ5       0.059700
     60 H27         -2.5140     0.8860    -0.7230 h1         1 CQ5       0.059700
     61 H28         -4.5670     0.8870     0.6550 h1         1 CQ5       0.037200
     62 H29         -4.5670    -0.8820     0.6560 h1         1 CQ5       0.037200
     63 H31         -6.6730    -0.2900     0.0580 h1         1 CQ5       0.046200
     64 H32         -6.7380    -1.1580    -1.4910 h1         1 CQ5       0.046200
     65 H33         -8.0900     0.6120    -2.1470 hc         1 CQ5       0.051700
     66 H34         -7.4380     1.6970    -0.8850 hc         1 CQ5       0.051700
     67 H35         -6.1870     0.9460    -3.5730 hc         1 CQ5       0.051700
     68 H36         -6.3370     2.5680    -2.8300 hc         1 CQ5       0.051700
     69 H37         -4.0100     1.2290    -2.5970 h1         1 CQ5       0.046200
     70 H38         -4.6680     2.0880    -1.1800 h1         1 CQ5       0.046200
     71 C16          5.9620     4.3590    -1.0290 c          1 CQ5       0.662100
@<TRIPOS>BOND
     1     7     6 1
     2     6     5 1
     3     6     8 1
     4     5    71 1
     5     9     8 ar
     6     9    10 ar
     7     8    13 ar
     8    10    11 ar
     9    13    12 ar
    10    71     4 2
    11    71    14 1
    12    33    32 1
    13    33    29 1
    14    11    12 ar
    15    32    31 1
    16    15    14 1
    17    15    16 1
    18    14    17 1
    19    31    30 1
    20    28    29 1
    21    28    27 1
    22    29    30 1
    23    16    19 1
    24     3    23 2
    25    17    18 1
    26    27    26 1
    27     2    23 1
    28     2    25 2
    29    23    22 1
    30    19    18 1
    31    19    20 1
    32    19    21 1
    33    25    26 1
    34    25     1 1
    35    22    21 1
    36    22    24 1
    37    24     1 2
    38     2    34 1
    39     5    35 1
    40     5    36 1
    41     6    37 1
    42     7    38 1
    43     7    39 1
    44     7    40 1
    45     9    41 1
    46    10    42 1
    47    11    43 1
    48    12    44 1
    49    13    45 1
    50    15    46 1
    51    15    47 1
    52    16    48 1
    53    16    49 1
    54    17    50 1
    55    17    51 1
    56    18    52 1
    57    18    53 1
    58    20    54 1
    59    21    55 1
    60    21    56 1
    61    24    57 1
    62    26    58 1
    63    27    59 1
    64    27    60 1
    65    28    61 1
    66    28    62 1
    67    30    63 1
    68    30    64 1
    69    31    65 1
    70    31    66 1
    71    32    67 1
    72    32    68 1
    73    33    69 1
    74    33    70 1
@<TRIPOS>SUBSTRUCTURE
     1 CQ5         1 TEMP              0 ****  ****    0 ROOT
