@<TRIPOS>MOLECULE
molecule
   44    46     1     0     0
SMALL
bcc


@<TRIPOS>ATOM
      1 C            0.0000     0.0000     0.0000 c3         1 CQ6      -0.072100
      2 N            3.7850     0.0010     1.5640 n3         1 CQ6      -0.825500
      3 O            1.8390     1.2370     2.3430 o          1 CQ6      -0.625300
      4 S            2.1360     0.0000     1.7100 s6         1 CQ6       1.332900
      5 C1           1.5300     0.0000     0.0000 c3         1 CQ6      -0.229600
      6 N1           7.9630    -1.0970     3.9380 nb         1 CQ6      -0.797000
      7 O1           1.8410    -1.2370     2.3440 o          1 CQ6      -0.625300
      8 C2           4.5460     1.2600     1.4970 c3         1 CQ6       0.235800
      9 N2           6.4470    -2.2600     2.6400 nb         1 CQ6      -0.802000
     10 O2          11.1000    -4.6670     6.3910 os         1 CQ6      -0.422600
     11 C3           5.4450     1.3360     2.7310 c3         1 CQ6      -0.032100
     12 N3           8.2270    -3.4010     3.6370 nu         1 CQ6      -0.893900
     13 C4           6.1700     0.0370     2.9420 ca         1 CQ6      -0.382900
     14 C5           7.3150     0.0360     3.7320 ca         1 CQ6       0.499200
     15 C6           7.5300    -2.2280     3.4000 ca         1 CQ6       0.944900
     16 C7           5.7540    -1.1560     2.3910 ca         1 CQ6       0.504600
     17 C8           4.5450    -1.2530     1.5030 c3         1 CQ6       0.185500
     18 C9           9.4280    -3.3820     4.4750 c3         1 CQ6       0.251500
     19 C10         10.3310    -4.5610     4.1020 c3         1 CQ6      -0.134400
     20 C11         11.5440    -4.5800     5.0360 c3         1 CQ6       0.140400
     21 C12         10.2900    -3.5670     6.8110 c3         1 CQ6       0.140400
     22 C13          9.0260    -3.5080     5.9490 c3         1 CQ6      -0.134400
     23 H           -0.3610     0.8790     0.5210 hc         1 CQ6       0.051033
     24 HA          -0.3610     0.0120    -1.0210 hc         1 CQ6       0.051033
     25 HB          -0.3610    -0.8900     0.5000 hc         1 CQ6       0.051033
     26 H1           1.8910     0.8840    -0.5110 h1         1 CQ6       0.096200
     27 H1A          1.8910    -0.8840    -0.5110 h1         1 CQ6       0.096200
     28 H2           5.1660     1.2520     0.6080 h1         1 CQ6       0.059200
     29 H2A          3.8540     2.0930     1.5110 h1         1 CQ6       0.059200
     30 H3           4.8240     1.5290     3.5980 hc         1 CQ6       0.060700
     31 H3A          6.1780     2.1190     2.5760 hc         1 CQ6       0.060700
     32 HN3          7.9280    -4.2550     3.2110 hn         1 CQ6       0.457800
     33 H5           7.6740     0.9570     4.1750 h4         1 CQ6       0.028100
     34 H8           3.9170    -2.0690     1.8380 h1         1 CQ6       0.079200
     35 H8A          4.8620    -1.4310     0.4820 h1         1 CQ6       0.079200
     36 H9           9.9660    -2.4540     4.3260 h1         1 CQ6       0.077700
     37 H10          9.7790    -5.4870     4.2090 hc         1 CQ6       0.058700
     38 H10A        10.6660    -4.4490     3.0780 hc         1 CQ6       0.058700
     39 H11         12.1640    -5.4380     4.8040 h1         1 CQ6       0.049450
     40 H11A        12.1150    -3.6690     4.9020 h1         1 CQ6       0.049450
     41 H12         10.0110    -3.7010     7.8490 h1         1 CQ6       0.049450
     42 H12A        10.8470    -2.6450     6.6970 h1         1 CQ6       0.049450
     43 H13          8.4510    -4.4150     6.0900 hc         1 CQ6       0.058700
     44 H13A         8.4330    -2.6480     6.2360 hc         1 CQ6       0.058700
@<TRIPOS>BOND
     1     1     5 1
     2     2     4 1
     3     2     8 1
     4     2    17 1
     5     3     4 2
     6     4     5 1
     7     4     7 2
     8     6    14 ar
     9     6    15 ar
    10     8    11 1
    11     9    15 ar
    12     9    16 ar
    13    10    20 1
    14    10    21 1
    15    11    13 1
    16    12    15 1
    17    12    18 1
    18    13    14 ar
    19    13    16 ar
    20    16    17 1
    21    18    19 1
    22    18    22 1
    23    19    20 1
    24    21    22 1
    25     1    23 1
    26     1    24 1
    27     1    25 1
    28     5    26 1
    29     5    27 1
    30     8    28 1
    31     8    29 1
    32    11    30 1
    33    11    31 1
    34    12    32 1
    35    14    33 1
    36    17    34 1
    37    17    35 1
    38    18    36 1
    39    19    37 1
    40    19    38 1
    41    20    39 1
    42    20    40 1
    43    21    41 1
    44    21    42 1
    45    22    43 1
    46    22    44 1
@<TRIPOS>SUBSTRUCTURE
     1 CQ6         1 TEMP              0 ****  ****    0 ROOT
