@<TRIPOS>MOLECULE
molecule
   46    48     1     0     0
SMALL
bcc


@<TRIPOS>ATOM
      1 Cl           0.0000     0.0000     0.0000 cl         1 CQ8      -0.120400
      2 C12          1.7360     0.0000     0.0000 ca         1 CQ8      -0.218900
      3 C8           2.4430     0.0000     1.2060 ca         1 CQ8       0.299600
      4 N1           1.7720    -0.0010     2.4270 nu         1 CQ8      -0.676000
      5 C7           2.4890    -0.0920     3.6130 ca         1 CQ8       0.200600
      6 C6           2.5470    -1.2970     4.3040 ca         1 CQ8      -0.144000
      7 C5           3.2600    -1.3840     5.4820 ca         1 CQ8      -0.101000
      8 C4           3.9220    -0.2750     5.9860 ca         1 CQ8      -0.140000
      9 C3           3.8760     0.9280     5.3150 ca         1 CQ8      -0.104000
     10 C2           3.1630     1.0310     4.1180 ca         1 CQ8      -0.156600
     11 C1           3.1150     2.3130     3.3920 c          1 CQ8       0.668700
     12 O            2.3990     2.4320     2.4160 o          1 CQ8      -0.585100
     13 N            3.8630     3.3530     3.8110 ns         1 CQ8      -0.589900
     14 C            3.8140     4.6280     3.0890 c3         1 CQ8       0.103300
     15 C11          2.4340    -0.0050    -1.1890 ca         1 CQ8       0.513200
     16 N2           3.7540    -0.0040    -1.2010 nb         1 CQ8      -0.791000
     17 C10          4.4630     0.0010    -0.0820 ca         1 CQ8       0.737200
     18 C9           3.8330     0.0000     1.1560 ca         1 CQ8      -0.396300
     19 N3           5.8520     0.0010    -0.1460 nu         1 CQ8      -0.912900
     20 C13          6.6430     0.0060     1.0870 c3         1 CQ8       0.246500
     21 C17          8.0210     0.6140     0.8090 c3         1 CQ8      -0.135900
     22 C16          8.8670     0.5440     2.0830 c3         1 CQ8       0.139400
     23 O1           8.9700    -0.8160     2.5110 os         1 CQ8      -0.420600
     24 C15          7.7160    -1.4220     2.8300 c3         1 CQ8       0.139400
     25 C14          6.8240    -1.4310     1.5860 c3         1 CQ8      -0.135900
     26 H11          1.8910    -0.0090    -2.1260 h4         1 CQ8       0.030100
     27 H1           0.7720     0.0330     2.4490 hn         1 CQ8       0.469800
     28 H9           4.4160     0.0030     2.0690 ha         1 CQ8       0.144000
     29 H6           2.0330    -2.1680     3.9170 ha         1 CQ8       0.148000
     30 H5           3.3030    -2.3250     6.0170 ha         1 CQ8       0.137000
     31 H4           4.4770    -0.3540     6.9130 ha         1 CQ8       0.136000
     32 H3           4.3970     1.7900     5.7120 ha         1 CQ8       0.128000
     33 H            4.4190     3.2680     4.6390 hn         1 CQ8       0.310500
     34 HC1          4.3290     4.5260     2.1410 h1         1 CQ8       0.043700
     35 HC2          2.7810     4.9030     2.9100 h1         1 CQ8       0.043700
     36 HC3          4.2950     5.3970     3.6800 h1         1 CQ8       0.043700
     37 HA           6.3110     0.0020    -1.0350 hn         1 CQ8       0.450800
     38 H13          6.1370     0.5900     1.8450 h1         1 CQ8       0.061700
     39 H171         7.9050     1.6490     0.5090 hc         1 CQ8       0.060700
     40 H172         8.5100     0.0560     0.0190 hc         1 CQ8       0.060700
     41 H141         7.2910    -2.0270     0.8110 hc         1 CQ8       0.060700
     42 H142         5.8570    -1.8500     1.8390 hc         1 CQ8       0.060700
     43 H161         9.8570     0.9330     1.8790 h1         1 CQ8       0.047450
     44 H162         8.3950     1.1310     2.8610 h1         1 CQ8       0.047450
     45 H151         7.8830    -2.4400     3.1610 h1         1 CQ8       0.047450
     46 H152         7.2320    -0.8560     3.6160 h1         1 CQ8       0.047450
@<TRIPOS>BOND
     1     1     2 1
     2     2     3 ar
     3     2    15 ar
     4     3     4 1
     5     3    18 ar
     6     4     5 1
     7     5     6 ar
     8     5    10 ar
     9     6     7 ar
    10     7     8 ar
    11     8     9 ar
    12     9    10 ar
    13    10    11 1
    14    11    12 2
    15    11    13 1
    16    13    14 1
    17    15    16 ar
    18    16    17 ar
    19    17    18 ar
    20    17    19 1
    21    19    20 1
    22    20    21 1
    23    20    25 1
    24    21    22 1
    25    22    23 1
    26    23    24 1
    27    24    25 1
    28    15    26 1
    29     4    27 1
    30    18    28 1
    31     6    29 1
    32     7    30 1
    33     8    31 1
    34     9    32 1
    35    13    33 1
    36    14    34 1
    37    14    35 1
    38    14    36 1
    39    19    37 1
    40    20    38 1
    41    21    39 1
    42    21    40 1
    43    25    41 1
    44    25    42 1
    45    22    43 1
    46    22    44 1
    47    24    45 1
    48    24    46 1
@<TRIPOS>SUBSTRUCTURE
     1 CQ8         1 TEMP              0 ****  ****    0 ROOT
