@<TRIPOS>MOLECULE
CQA
   47    49     1     0     0
SMALL
bcc


@<TRIPOS>ATOM
      1 C1           0.0000     0.0000     0.0000 ca         1 CQA      -0.019600
      2 C2           1.3940     0.0000     0.0000 ca         1 CQA      -0.111000
      3 C3           2.0900     0.0000     1.1710 ca         1 CQA      -0.072000
      4 C4           1.4000     0.0060     2.3900 ca         1 CQA      -0.198300
      5 C5          -0.0170     0.0000     2.3950 ca         1 CQA       0.423600
      6 C6          -0.7020     0.0000     1.1680 ca         1 CQA      -0.147300
      7 C7           2.0870    -0.0010     3.6270 ca         1 CQA       0.079600
      8 C8           1.3320    -0.0010     4.7900 ca         1 CQA      -0.348300
      9 C9          -0.0540     0.0000     4.7080 ca         1 CQA       0.469200
     10 N1          -0.6810     0.0000     3.5560 nb         1 CQA      -0.625000
     11 Cl          -0.8550     0.0010    -1.5110 cl         1 CQA      -0.027400
     12 N2           3.4730    -0.0030     3.6750 nu         1 CQA      -0.199000
     13 C10          4.1310    -0.1660     4.8990 ca         1 CQA      -0.038400
     14 C11          3.6630    -1.0940     5.8210 ca         1 CQA      -0.100000
     15 C12          4.3130    -1.2550     7.0280 ca         1 CQA      -0.166000
     16 C13          5.4360    -0.4930     7.3190 ca         1 CQA       0.156100
     17 C14          5.9010     0.4370     6.4010 ca         1 CQA      -0.101300
     18 C15          5.2520     0.5990     5.1930 ca         1 CQA      -0.098000
     19 O            6.0750    -0.6530     8.5080 oh         1 CQA      -0.465100
     20 C16          7.1180     1.2670     6.7210 c3         1 CQA       0.201100
     21 N3           6.7580     2.3120     7.6870 n3         1 CQA      -0.503600
     22 C17          8.0130     2.9480     8.1090 c3         1 CQA       0.125300
     23 C18          8.6610     2.1130     9.2150 c3         1 CQA       0.000400
     24 C19          5.9970     3.3280     6.9470 c3         1 CQA       0.125300
     25 C20          5.3770     4.3200     7.9330 c3         1 CQA       0.000400
     26 H2           1.9290    -0.0000    -0.9420 ha         1 CQA       0.114000
     27 H3           3.1740     0.0000     1.1590 ha         1 CQA       0.101000
     28 H6          -1.7850     0.0000     1.1500 ha         1 CQA       0.130000
     29 H8           1.8200    -0.0000     5.7570 ha         1 CQA       0.146000
     30 H9          -0.6350     0.0000     5.6230 h4         1 CQA      -0.025900
     31 HN2          4.0020     0.1210     2.8350 hn         1 CQA       0.289800
     32 H11          2.7870    -1.6880     5.5930 ha         1 CQA       0.128000
     33 H12          3.9500    -1.9800     7.7460 ha         1 CQA       0.113000
     34 H15          5.6150     1.3260     4.4760 ha         1 CQA       0.112000
     35 HO           6.0570    -1.5630     8.7560 ho         1 CQA       0.397000
     36 H161         7.8870     0.6320     7.1450 h1         1 CQA       0.019200
     37 H162         7.4890     1.7270     5.8130 h1         1 CQA       0.019200
     38 H171         7.8050     3.9440     8.4820 h1         1 CQA       0.012700
     39 H172         8.6870     3.0130     7.2630 h1         1 CQA       0.012700
     40 H181         9.2310     1.3060     8.7720 hc         1 CQA       0.007367
     41 H182         9.3210     2.7410     9.8020 hc         1 CQA       0.007367
     42 H183         7.8910     1.7020     9.8560 hc         1 CQA       0.007367
     43 H191         5.2120     2.8470     6.3770 h1         1 CQA       0.012700
     44 H192         6.6610     3.8560     6.2730 h1         1 CQA       0.012700
     45 H201         5.1420     3.8090     8.8590 hc         1 CQA       0.007367
     46 H202         6.0810     5.1200     8.1310 hc         1 CQA       0.007367
     47 H203         4.4710     4.7340     7.5080 hc         1 CQA       0.007367
@<TRIPOS>BOND
     1     1     2 ar  
     2     1     6 ar  
     3     1    11 1   
     4     2     3 ar  
     5     2    26 1   
     6     3     4 ar  
     7     3    27 1   
     8     4     5 ar  
     9     4     7 ar  
    10     5     6 ar  
    11     5    10 ar  
    12     6    28 1   
    13     7     8 ar  
    14     7    12 1   
    15     8     9 ar  
    16     8    29 1   
    17     9    10 ar  
    18     9    30 1   
    19    12    13 1   
    20    12    31 1   
    21    13    14 ar  
    22    13    18 ar  
    23    14    15 ar  
    24    14    32 1   
    25    15    16 ar  
    26    15    33 1   
    27    16    17 ar  
    28    16    19 1   
    29    17    18 ar  
    30    17    20 1   
    31    18    34 1   
    32    19    35 1   
    33    20    21 1   
    34    20    36 1   
    35    20    37 1   
    36    21    22 1   
    37    21    24 1   
    38    22    23 1   
    39    22    38 1   
    40    22    39 1   
    41    23    40 1   
    42    23    41 1   
    43    23    42 1   
    44    24    25 1   
    45    24    43 1   
    46    24    44 1   
    47    25    45 1   
    48    25    46 1   
    49    25    47 1   
@<TRIPOS>SUBSTRUCTURE
     1 CQA         1 TEMP              0 ****  ****    0 ROOT
