@<TRIPOS>MOLECULE
molecule
   37    36     1     0     0
SMALL
bcc


@<TRIPOS>ATOM
      1 OAC          0.0000     0.0000     0.0000 o          1 CQB      -0.890300
      2 CAO          1.3430     0.0000     0.0000 c          1 CQB       0.893600
      3 OAG          1.9460     0.0000     1.0470 o          1 CQB      -0.890300
      4 CAJ          2.0950     0.0000    -1.3050 c3         1 CQB      -0.184400
      5 CAK          3.5990     0.0000    -1.0260 c3         1 CQB      -0.046400
      6 CAU          4.3650     0.0000    -2.3510 c3         1 CQB       0.058100
      7 CAQ          5.8420     0.1240    -2.0790 c          1 CQB       0.894600
      8 OAI          6.5860    -0.7830    -2.3630 o          1 CQB      -0.873300
      9 OAE          6.3300     1.2440    -1.5200 o          1 CQB      -0.873300
     10 OAN          4.1050    -1.2400    -3.0590 os         1 CQB      -0.425900
     11 CAR          4.1420    -1.1950    -4.4040 c          1 CQB       0.768100
     12 OAF          4.3830    -0.1470    -4.9710 o          1 CQB      -0.639000
     13 N            3.9100    -2.3120    -5.1230 ns         1 CQB      -0.562900
     14 CA           3.9500    -2.2630    -6.5870 c3         1 CQB       0.031700
     15 C            2.6070    -1.8200    -7.1110 c          1 CQB       0.883600
     16 O            1.7100    -1.5720    -6.3410 o          1 CQB      -0.854300
     17 OXT          2.4090    -1.7020    -8.4340 o          1 CQB      -0.854300
     18 CB           4.2790    -3.6520    -7.1350 c3         1 CQB      -0.069400
     19 CG           5.6770    -4.0660    -6.6710 c3         1 CQB      -0.084700
     20 CD2          5.9490    -5.5100    -7.0950 c3         1 CQB      -0.085600
     21 CD1          6.7190    -3.1420    -7.3060 c3         1 CQB      -0.085600
     22 H2           1.8330     0.8850    -1.8730 hc         1 CQB       0.037200
     23 H3           1.8330    -0.8840    -1.8730 hc         1 CQB       0.037200
     24 H4           3.8610    -0.8840    -0.4570 hc         1 CQB       0.052700
     25 H5           3.8610     0.8850    -0.4580 hc         1 CQB       0.052700
     26 H6           4.0380     0.8370    -2.9560 h1         1 CQB       0.062700
     27 H8           3.6650    -3.1630    -4.6580 hn         1 CQB       0.295500
     28 H9           4.7110    -1.5600    -6.9040 h1         1 CQB       0.072700
     29 H11          4.2500    -3.6280    -8.2180 hc         1 CQB       0.040200
     30 H12          3.5500    -4.3660    -6.7700 hc         1 CQB       0.040200
     31 H13          5.7360    -3.9890    -5.5920 hc         1 CQB       0.071700
     32 H14          5.1880    -6.1590    -6.6780 hc         1 CQB       0.020700
     33 H15          6.9230    -5.8150    -6.7320 hc         1 CQB       0.020700
     34 H16          5.9290    -5.5790    -8.1760 hc         1 CQB       0.020700
     35 H17          6.7430    -2.2010    -6.7690 hc         1 CQB       0.020700
     36 H18          7.6950    -3.6110    -7.2560 hc         1 CQB       0.020700
     37 H19          6.4580    -2.9610    -8.3410 hc         1 CQB       0.020700
@<TRIPOS>BOND
     1     8     7 1
     2     3     2 1
     3     7     9 1
     4     7     6 1
     5     2     1 1
     6     2     4 1
     7     5     4 1
     8     5     6 1
     9     6    10 1
    10    12    11 2
    11    20    19 1
    12    10    11 1
    13    11    13 1
    14    18    19 1
    15    18    14 1
    16    19    21 1
    17    13    14 1
    18    14    15 1
    19    15    16 1
    20    15    17 1
    21     4    22 1
    22     4    23 1
    23     5    24 1
    24     5    25 1
    25     6    26 1
    26    13    27 1
    27    14    28 1
    28    18    29 1
    29    18    30 1
    30    19    31 1
    31    20    32 1
    32    20    33 1
    33    20    34 1
    34    21    35 1
    35    21    36 1
    36    21    37 1
@<TRIPOS>SUBSTRUCTURE
     1 CQB         1 TEMP              0 ****  ****    0 ROOT
