@<TRIPOS>MOLECULE
CQD
   38    40     1     0     0
SMALL
bcc


@<TRIPOS>ATOM
      1 O            0.0000     0.0000     0.0000 o          1 CQD      -0.511100
      2 C            1.2140     0.0000     0.0000 c          1 CQD       0.525800
      3 CAS          1.9600     0.0000     1.2830 ca         1 CQD       0.329800
      4 NAM          1.3140     0.0050     2.4390 nb         1 CQD      -0.520000
      5 CAE          1.9560     0.0050     3.5890 ca         1 CQD       0.407200
      6 CAD          3.3400    -0.0000     3.6410 ca         1 CQD      -0.204300
      7 CAF          4.0670    -0.0060     2.4580 ca         1 CQD      -0.021000
      8 CD2          3.3630    -0.0060     1.2560 ca         1 CQD      -0.239900
      9 CG           4.0740    -0.0130    -0.0410 c          1 CQD       0.659900
     10 OD1          5.2900    -0.0190    -0.0690 o          1 CQD      -0.553100
     11 CB           3.3130    -0.0140    -1.2930 cc         1 CQD      -0.295800
     12 Cl           4.1560    -0.0230    -2.8110 cl         1 CQD       0.011600
     13 CA           1.9590    -0.0070    -1.2810 cd         1 CQD      -0.017200
     14 N            1.2650    -0.0140    -2.4740 nu         1 CQD      -0.346000
     15 CAG         -0.1960    -0.1270    -2.4710 c3         1 CQD       0.126800
     16 CAJ         -0.7010    -0.2330    -3.9120 c3         1 CQD       0.144800
     17 NAV         -2.1660    -0.3470    -3.9100 n3         1 CQD      -0.527600
     18 CAK         -2.6690    -0.6880    -5.2480 c3         1 CQD       0.105800
     19 CAH         -4.1900    -0.8560    -5.1870 c3         1 CQD       0.215900
     20 OAO         -4.7770     0.3450    -4.6770 os         1 CQD      -0.411600
     21 CAI         -4.3090     0.7060    -3.3750 c3         1 CQD       0.215900
     22 CAL         -2.7890     0.8900    -3.4170 c3         1 CQD       0.105800
     23 H1           1.3900     0.0100     4.5130 h4         1 CQD      -0.014900
     24 H2           3.8510     0.0000     4.5960 ha         1 CQD       0.118000
     25 H3           5.1500    -0.0110     2.4700 ha         1 CQD       0.133000
     26 H6           1.7580     0.0860    -3.3400 hn         1 CQD       0.304800
     27 H8          -0.4880    -1.0120    -1.9200 h1         1 CQD       0.049700
     28 H9          -0.6250     0.7500    -2.0020 h1         1 CQD       0.049700
     29 H10         -0.4080     0.6520    -4.4630 h1         1 CQD       0.012200
     30 H11         -0.2710    -1.1090    -4.3810 h1         1 CQD       0.012200
     31 H13         -2.4220     0.1070    -5.9400 h1         1 CQD       0.019950
     32 H14         -2.2180    -1.6160    -5.5770 h1         1 CQD       0.019950
     33 H15         -4.5710    -1.0490    -6.1820 h1         1 CQD       0.014700
     34 H16         -4.4360    -1.6830    -4.5320 h1         1 CQD       0.014700
     35 H17         -4.5580    -0.0800    -2.6720 h1         1 CQD       0.014700
     36 H18         -4.7760     1.6340    -3.0680 h1         1 CQD       0.014700
     37 H19         -2.5430     1.7080    -4.0830 h1         1 CQD       0.019950
     38 H20         -2.4240     1.1060    -2.4200 h1         1 CQD       0.019950
@<TRIPOS>BOND
     1     1     2 2   
     2     2     3 1   
     3     2    13 1   
     4     3     4 ar  
     5     3     8 ar  
     6     4     5 ar  
     7     5     6 ar  
     8     5    23 1   
     9     6     7 ar  
    10     6    24 1   
    11     7     8 ar  
    12     7    25 1   
    13     8     9 1   
    14     9    10 2   
    15     9    11 1   
    16    11    12 1   
    17    11    13 2   
    18    13    14 1   
    19    14    15 1   
    20    14    26 1   
    21    15    16 1   
    22    15    27 1   
    23    15    28 1   
    24    16    17 1   
    25    16    29 1   
    26    16    30 1   
    27    17    18 1   
    28    17    22 1   
    29    18    19 1   
    30    18    31 1   
    31    18    32 1   
    32    19    20 1   
    33    19    33 1   
    34    19    34 1   
    35    20    21 1   
    36    21    22 1   
    37    21    35 1   
    38    21    36 1   
    39    22    37 1   
    40    22    38 1   
@<TRIPOS>SUBSTRUCTURE
     1 CQD         1 TEMP              0 ****  ****    0 ROOT
