@<TRIPOS>MOLECULE
CQE
   71    76     1     0     0
SMALL
bcc


@<TRIPOS>ATOM
      1 F18          0.0000     0.0000     0.0000 f          1 CQE      -0.117900
      2 C13          1.3510     0.0000     0.0000 ca         1 CQE       0.198900
      3 C14          2.0420     0.0000     1.2000 ca         1 CQE      -0.129000
      4 C15          3.4240    -0.0000     1.2000 ca         1 CQE      -0.054000
      5 C16          4.1170    -0.0000     0.0020 ca         1 CQE       0.065900
      6 F19          5.4680    -0.0000     0.0020 f          1 CQE      -0.119900
      7 C17          3.4250    -0.0000    -1.1980 ca         1 CQE       0.001000
      8 C12          2.0430    -0.0060    -1.1980 ca         1 CQE      -0.167500
      9 S9           1.1630    -0.0140    -2.7250 sy         1 CQE       1.043200
     10 O10          0.1810     1.0080    -2.6270 o          1 CQE      -0.575300
     11 O11          2.1430    -0.0540    -3.7530 o          1 CQE      -0.575300
     12 N8           0.3400    -1.4480    -2.8080 nu         1 CQE      -0.397500
     13 C5          -0.6960    -1.7140    -1.9050 ca         1 CQE       0.007600
     14 C6          -0.5810    -2.7650    -1.0060 ca         1 CQE       0.112900
     15 F7           0.5310    -3.5340    -1.0010 f          1 CQE      -0.121900
     16 C4          -1.8360    -0.9210    -1.9040 ca         1 CQE      -0.060000
     17 C3          -2.8620    -1.1790    -1.0130 ca         1 CQE      -0.099000
     18 C2          -2.7590    -2.2250    -0.1190 ca         1 CQE      -0.063000
     19 C1          -1.6150    -3.0250    -0.1080 ca         1 CQE      -0.152500
     20 C20         -1.5010    -4.1460     0.8540 cc         1 CQE       0.402800
     21 N21         -0.4410    -4.3370     1.6200 nc         1 CQE      -0.538000
     22 C22         -0.4620    -5.3490     2.4180 cd         1 CQE       0.440700
     23 C25          0.6560    -5.7190     3.3590 c3         1 CQE      -0.059000
     24 C30          0.1390    -5.6970     4.8010 c3         1 CQE      -0.072400
     25 C29          1.2620    -6.1320     5.7450 c3         1 CQE       0.156800
     26 C26          1.1610    -7.1250     3.0260 c3         1 CQE      -0.072400
     27 C27          2.2530    -7.5180     4.0240 c3         1 CQE       0.156800
     28 N28          1.7090    -7.4840     5.3870 n3         1 CQE      -0.494600
     29 C37          0.6210    -8.4580     5.5440 cx         1 CQE       0.031500
     30 C38          0.9280    -9.9180     5.2080 cx         1 CQE      -0.073900
     31 C39          0.7540    -9.4890     6.6660 cx         1 CQE      -0.073900
     32 S23         -1.9260    -6.2150     2.2660 ss         1 CQE      -0.283300
     33 C24         -2.4890    -5.0810     1.0400 cd         1 CQE      -0.045400
     34 C31         -3.7860    -5.1300     0.3380 ca         1 CQE       0.060000
     35 C36         -4.9730    -5.3660     1.0390 ca         1 CQE      -0.268300
     36 C32         -3.8620    -4.9340    -1.0490 ca         1 CQE      -0.245300
     37 C33         -5.0920    -4.9870    -1.6660 ca         1 CQE       0.437200
     38 N34         -6.1930    -5.2170    -0.9730 nb         1 CQE      -0.555000
     39 C35         -6.1700    -5.4030     0.3390 ca         1 CQE       0.370200
     40 N40         -7.3620    -5.6390     1.0220 ns         1 CQE      -0.124400
     41 C41         -8.5130    -5.7860     0.3370 c          1 CQE       0.542100
     42 O42         -8.5010    -5.7930    -0.8750 o          1 CQE      -0.567100
     43 C43         -9.8170    -5.9400     1.0790 c3         1 CQE      -0.069100
     44 H14          1.5000    -0.0000     2.1380 ha         1 CQE       0.129000
     45 H15          3.9660    -0.0000     2.1380 ha         1 CQE       0.122000
     46 H17          3.9680    -0.0020    -2.1360 ha         1 CQE       0.147000
     47 H8           0.5800    -2.1230    -3.5070 hn         1 CQE       0.353800
     48 H4          -1.9220    -0.0980    -2.6030 ha         1 CQE       0.144000
     49 H3          -3.7500    -0.5590    -1.0180 ha         1 CQE       0.114000
     50 H2          -3.5660    -2.4240     0.5760 ha         1 CQE       0.116000
     51 H25          1.4700    -5.0100     3.2580 hc         1 CQE       0.053700
     52 H301        -0.6960    -6.3810     4.8950 hc         1 CQE       0.031450
     53 H302        -0.1770    -4.6930     5.0560 hc         1 CQE       0.031450
     54 H261         0.3410    -7.8280     3.0940 hc         1 CQE       0.031450
     55 H262         1.5700    -7.1330     2.0230 hc         1 CQE       0.031450
     56 H291         2.0930    -5.4430     5.6570 h1         1 CQE       0.027950
     57 H292         0.8940    -6.1330     6.7640 h1         1 CQE       0.027950
     58 H271         3.0780    -6.8200     3.9480 h1         1 CQE       0.027950
     59 H272         2.6000    -8.5200     3.8000 h1         1 CQE       0.027950
     60 H37         -0.3940    -8.1480     5.3310 h1         1 CQE       0.058700
     61 H381         0.1050   -10.4840     4.7870 hc         1 CQE       0.048700
     62 H382         1.9460   -10.1240     4.9000 hc         1 CQE       0.048700
     63 H391        -0.1750    -9.7910     7.1350 hc         1 CQE       0.048700
     64 H392         1.6650    -9.4320     7.2480 hc         1 CQE       0.048700
     65 H36         -4.9580    -5.5190     2.1120 ha         1 CQE       0.123000
     66 H32         -2.9660    -4.7440    -1.6270 ha         1 CQE       0.127000
     67 H33         -5.1580    -4.8380    -2.7370 h4         1 CQE      -0.014900
     68 H40         -7.3540    -5.7500     2.0170 hn         1 CQE       0.170500
     69 H431        -9.7930    -6.8510     1.6650 hc         1 CQE       0.023367
     70 H432       -10.6330    -5.9880     0.3690 hc         1 CQE       0.023367
     71 H433        -9.9600    -5.0910     1.7370 hc         1 CQE       0.023367
@<TRIPOS>BOND
     1     1     2 1   
     2     2     3 ar  
     3     2     8 ar  
     4     3     4 ar  
     5     3    44 1   
     6     4     5 ar  
     7     4    45 1   
     8     5     6 1   
     9     5     7 ar  
    10     7     8 ar  
    11     7    46 1   
    12     8     9 1   
    13     9    10 2   
    14     9    11 2   
    15     9    12 1   
    16    12    13 1   
    17    12    47 1   
    18    13    14 ar  
    19    13    16 ar  
    20    14    15 1   
    21    14    19 ar  
    22    16    17 ar  
    23    16    48 1   
    24    17    18 ar  
    25    17    49 1   
    26    18    19 ar  
    27    18    50 1   
    28    19    20 1   
    29    20    21 1   
    30    20    33 2   
    31    21    22 2   
    32    22    23 1   
    33    22    32 1   
    34    23    24 1   
    35    23    26 1   
    36    23    51 1   
    37    24    25 1   
    38    24    52 1   
    39    24    53 1   
    40    25    28 1   
    41    25    56 1   
    42    25    57 1   
    43    26    27 1   
    44    26    54 1   
    45    26    55 1   
    46    27    28 1   
    47    27    58 1   
    48    27    59 1   
    49    28    29 1   
    50    29    30 1   
    51    29    31 1   
    52    29    60 1   
    53    30    31 1   
    54    30    61 1   
    55    30    62 1   
    56    31    63 1   
    57    31    64 1   
    58    32    33 1   
    59    33    34 1   
    60    34    35 ar  
    61    34    36 ar  
    62    35    39 ar  
    63    35    65 1   
    64    36    37 ar  
    65    36    66 1   
    66    37    38 ar  
    67    37    67 1   
    68    38    39 ar  
    69    39    40 1   
    70    40    41 1   
    71    40    68 1   
    72    41    42 2   
    73    41    43 1   
    74    43    69 1   
    75    43    70 1   
    76    43    71 1   
@<TRIPOS>SUBSTRUCTURE
     1 CQE         1 TEMP              0 ****  ****    0 ROOT
