@<TRIPOS>MOLECULE
molecule
   12    12     1     0     0
SMALL
bcc


@<TRIPOS>ATOM
      1 C4           0.0000     0.0000     0.0000 ca         1 CQG      -0.281300
      2 C3           1.3800     0.0000     0.0000 ca         1 CQG       0.432200
      3 C2           1.4520     0.0020     2.3050 ca         1 CQG       0.432200
      4 C1           0.0750     0.0080     2.3910 ca         1 CQG      -0.281300
      5 C           -0.6760     0.0070     1.2180 ca         1 CQG       0.141100
      6 N            2.0570     0.0000     1.1320 nb         1 CQG      -0.697000
      7 H4          -0.5490    -0.0000    -0.9340 ha         1 CQG       0.148000
      8 H3           1.9140    -0.0030    -0.9420 h4         1 CQG       0.026100
      9 H2           2.0440     0.0020     3.2120 h4         1 CQG       0.026100
     10 H1          -0.4160     0.0110     3.3570 ha         1 CQG       0.148000
     11 H           -2.3520    -0.8740     1.2720 ho         1 CQG       0.426000
     12 O           -2.0340     0.0140     1.2600 oh         1 CQG      -0.518100
@<TRIPOS>BOND
     1     3     6 ar
     2     3     4 ar
     3     6     2 ar
     4     4     5 ar
     5     2     1 ar
     6     5     1 ar
     7     5    12 1
     8     1     7 1
     9     2     8 1
    10     3     9 1
    11     4    10 1
    12    12    11 1
@<TRIPOS>SUBSTRUCTURE
     1 CQG         1 TEMP              0 ****  ****    0 ROOT
