@<TRIPOS>MOLECULE
CQH
   63    65     1     0     0
SMALL
bcc


@<TRIPOS>ATOM
      1 C11          0.0000     0.0000     0.0000 c          1 CQH       0.560100
      2 C02         -1.6520    -4.3160     0.8250 c3         1 CQH      -0.030400
      3 C04         -2.7250    -2.3400    -0.2230 ca         1 CQH      -0.120300
      4 C05         -4.1030    -2.3580    -0.3150 ca         1 CQH      -0.080000
      5 C06         -4.8300    -1.2100    -0.0650 ca         1 CQH      -0.110000
      6 C07         -4.1810    -0.0370     0.2760 ca         1 CQH      -0.084000
      7 C08         -2.8020    -0.0120     0.3700 ca         1 CQH      -0.118000
      8 C09         -2.0690    -1.1670     0.1240 ca         1 CQH      -0.094400
      9 C13          1.5070     0.0000     0.0000 c3         1 CQH      -0.062300
     10 C01         -0.8480    -5.5880     0.5480 c3         1 CQH       0.003900
     11 C14          2.0170     0.0000     1.4420 c3         1 CQH      -0.038400
     12 C15          1.6230    -1.3130     2.1220 c3         1 CQH      -0.074700
     13 C16          2.3740    -2.4720     1.4660 c3         1 CQH       0.003400
     14 C17          1.9860    -1.2460     3.6070 c3         1 CQH       0.003400
     15 C21          3.7750     2.4590    -1.8000 ca         1 CQH      -0.137600
     16 C22          5.0640     2.4830    -2.3340 ca         1 CQH      -0.051000
     17 C23          5.5580     3.6460    -2.8880 ca         1 CQH      -0.093000
     18 C24          4.7760     4.7870    -2.9170 ca         1 CQH      -0.129300
     19 C25          5.3200     6.0540    -3.5240 c3         1 CQH       0.094200
     20 C26          4.9850     6.0910    -4.9940 cc         1 CQH       0.087300
     21 C28          4.2600     5.8180    -7.3800 cc         1 CQH       1.111400
     22 C31          5.3410     7.1580    -5.9590 cd         1 CQH       0.859300
     23 C33          3.4960     4.7700    -2.3910 ca         1 CQH      -0.093000
     24 C34          2.9900     3.6120    -1.8380 ca         1 CQH      -0.051000
     25 N10         -0.6750    -1.1450     0.2240 ns         1 CQH      -0.027100
     26 N18          1.9950     1.1960    -0.6910 ns         1 CQH      -0.174900
     27 N30          4.9380     6.9550    -7.1680 nd         1 CQH      -0.810000
     28 O12         -0.6070     1.0320    -0.1960 o          1 CQH      -0.646100
     29 O20          3.9260     0.2120    -1.1780 o          1 CQH      -0.653100
     30 O29          3.7960     5.4370    -8.4350 o          1 CQH      -0.564000
     31 O32          6.0330     8.2580    -5.6020 o          1 CQH      -0.681000
     32 S27          4.1780     4.9790    -5.8250 ss         1 CQH      -0.210300
     33 H1          -2.5890    -4.5770     1.3000 hc         1 CQH       0.014700
     34 H2          -1.0840    -3.6650     1.4790 hc         1 CQH       0.014700
     35 H3          -0.9960    -3.3320    -0.9710 hc         1 CQH       0.020200
     36 H4          -2.5010    -4.2450    -1.1490 hc         1 CQH       0.020200
     37 H5          -4.6150    -3.2750    -0.5820 ha         1 CQH       0.107000
     38 H6          -5.9110    -1.2280    -0.1380 ha         1 CQH       0.104000
     39 H7          -4.7530     0.8620     0.4690 ha         1 CQH       0.105000
     40 H8          -2.2940     0.9050     0.6390 ha         1 CQH       0.158000
     41 H9           1.8680    -0.8840    -0.5110 h1         1 CQH       0.071700
     42 H10         -0.4420    -5.9670     1.4780 hc         1 CQH       0.003033
     43 H11         -1.4950    -6.3350     0.1050 hc         1 CQH       0.003033
     44 H12         -0.0370    -5.3620    -0.1340 hc         1 CQH       0.003033
     45 H13          3.0950     0.0980     1.4440 hc         1 CQH       0.036200
     46 H14          1.5770     0.8310     1.9810 hc         1 CQH       0.036200
     47 H15          0.5560    -1.4690     2.0180 hc         1 CQH       0.026700
     48 H16          2.0820    -2.5500     0.4260 hc         1 CQH       0.007700
     49 H17          2.1330    -3.3960     1.9790 hc         1 CQH       0.007700
     50 H18          3.4410    -2.2930     1.5290 hc         1 CQH       0.007700
     51 H19          1.7360    -2.1870     4.0830 hc         1 CQH       0.007700
     52 H20          1.4310    -0.4440     4.0790 hc         1 CQH       0.007700
     53 H21          3.0480    -1.0600     3.7120 hc         1 CQH       0.007700
     54 H22          5.6770     1.5900    -2.3120 ha         1 CQH       0.125000
     55 H23          6.5580     3.6660    -3.3030 ha         1 CQH       0.112000
     56 H24          6.3960     6.0810    -3.3980 hc         1 CQH       0.075200
     57 H25          4.8770     6.9110    -3.0310 hc         1 CQH       0.075200
     58 H26          2.8890     5.6670    -2.4190 ha         1 CQH       0.112000
     59 H27          1.9880     3.6000    -1.4270 ha         1 CQH       0.125000
     60 H28         -0.1750    -1.9900     0.4200 hn         1 CQH       0.193500
     61 H29          1.3980     1.9930    -0.7930 hn         1 CQH       0.204500
     62 C19          3.2410     1.2160    -1.2050 c          1 CQH       0.593700
     63 C03         -1.9330    -3.5940    -0.4950 c3         1 CQH       0.025900
@<TRIPOS>BOND
     1     1     9 1   
     2     1    25 1   
     3     1    28 2   
     4     2    10 1   
     5     2    33 1   
     6     2    34 1   
     7     2    63 1   
     8     3     4 ar  
     9     3     8 ar  
    10     3    63 1   
    11     4     5 ar  
    12     4    37 1   
    13     5     6 ar  
    14     5    38 1   
    15     6     7 ar  
    16     6    39 1   
    17     7     8 ar  
    18     7    40 1   
    19     8    25 1   
    20     9    11 1   
    21     9    26 1   
    22     9    41 1   
    23    10    42 1   
    24    10    43 1   
    25    10    44 1   
    26    11    12 1   
    27    11    45 1   
    28    11    46 1   
    29    12    13 1   
    30    12    14 1   
    31    12    47 1   
    32    13    48 1   
    33    13    49 1   
    34    13    50 1   
    35    14    51 1   
    36    14    52 1   
    37    14    53 1   
    38    15    16 ar  
    39    15    24 ar  
    40    15    62 1   
    41    16    17 ar  
    42    16    54 1   
    43    17    18 ar  
    44    17    55 1   
    45    18    19 1   
    46    18    23 ar  
    47    19    20 1   
    48    19    56 1   
    49    19    57 1   
    50    20    22 2   
    51    20    32 1   
    52    21    27 2   
    53    21    30 1   
    54    21    32 1   
    55    22    27 1   
    56    22    31 1   
    57    23    24 ar  
    58    23    58 1   
    59    24    59 1   
    60    25    60 1   
    61    26    61 1   
    62    26    62 1   
    63    29    62 2   
    64    35    63 1   
    65    36    63 1   
@<TRIPOS>SUBSTRUCTURE
     1 CQH         1 TEMP              0 ****  ****    0 ROOT
