@<TRIPOS>MOLECULE
molecule
   15    15     1     0     0
SMALL
bcc


@<TRIPOS>ATOM
      1 C4           0.0000     0.0000     0.0000 ca         1 CQJ       0.638600
      2 C5           1.3890     0.0000     0.0000 ca         1 CQJ      -0.263300
      3 C3          -0.0600    -0.0040     2.3060 ca         1 CQJ       0.447200
      4 C2           1.3180     0.0000     2.3810 ca         1 CQJ      -0.272300
      5 C1           2.0630     0.0000     1.2090 ca         1 CQJ      -0.032300
      6 O           -0.6710    -0.0010    -1.1790 oh         1 CQJ      -0.625300
      7 N           -0.6740    -0.0050     1.1370 nb         1 CQJ      -0.739000
      8 C            3.5690    -0.0000     1.2530 c3         1 CQJ      -0.050800
      9 H6           1.9380    -0.0000    -0.9340 ha         1 CQJ       0.150000
     10 H4          -0.6460    -0.0060     3.2180 h4         1 CQJ       0.025100
     11 H3           1.8140     0.0010     3.3440 ha         1 CQJ       0.140000
     12 H5          -1.1320     0.8160    -1.2790 ho         1 CQJ       0.433000
     13 H            3.9010    -0.2730     2.2480 hc         1 CQJ       0.049367
     14 H1           3.9370     0.9890     1.0080 hc         1 CQJ       0.049367
     15 H2           3.9510    -0.7160     0.5360 hc         1 CQJ       0.049367
@<TRIPOS>BOND
     1     8     5 1
     2     4     5 ar
     3     4     3 ar
     4     5     2 ar
     5     2     1 ar
     6     3     7 ar
     7     7     1 ar
     8     1     6 1
     9     2     9 1
    10     3    10 1
    11     4    11 1
    12     6    12 1
    13     8    13 1
    14     8    14 1
    15     8    15 1
@<TRIPOS>SUBSTRUCTURE
     1 CQJ         1 TEMP              0 ****  ****    0 ROOT
