@<TRIPOS>MOLECULE
molecule
   21    22     1     0     0
SMALL
bcc


@<TRIPOS>ATOM
      1 CAG          0.0000     0.0000     0.0000 cc         1 CQK       0.564500
      2 CAH         -3.0680    -0.0010    -2.1940 ca         1 CQK       0.375800
      3 CAJ         -2.2760    -0.0010    -1.0500 ca         1 CQK      -0.152300
      4 CAK         -1.2100    -0.0010    -3.5670 ca         1 CQK       0.412200
      5 CAL         -0.8860    -0.0010    -1.1910 ca         1 CQK      -0.080500
      6 CAM         -0.3520    -0.0010    -2.4820 ca         1 CQK      -0.206300
      7 NAC          1.7130     0.0000     1.2270 na         1 CQK       0.199900
      8 NAD          0.6860     0.0100     2.0040 nd         1 CQK      -0.190800
      9 NAE          1.3190     0.0000     0.0000 nd         1 CQK      -0.563800
     10 NAF         -0.3840     0.0060     1.2840 nc         1 CQK      -0.367000
     11 NAI         -2.5150     0.0050    -3.4010 nb         1 CQK      -0.688000
     12 NAO         -5.3180    -0.0010    -3.1670 ns         1 CQK      -0.455400
     13 OAA         -6.7280    -0.0000    -3.0420 oh         1 CQK      -0.363100
     14 OAB         -5.0560    -0.0010    -0.9620 o          1 CQK      -0.568100
     15 H1          -2.7220    -0.1960    -0.0820 ha         1 CQK       0.188000
     16 H2          -0.8010     0.0020    -4.5700 h4         1 CQK       0.031100
     17 H3           0.7210    -0.0060    -2.6310 ha         1 CQK       0.158000
     18 H4           2.6670     0.0000     1.5290 hn         1 CQK       0.373700
     19 H5          -4.8960     0.0230    -4.0740 hn         1 CQK       0.341500
     20 H6          -7.1190    -0.0830    -3.8960 ho         1 CQK       0.401000
     21 CAN         -4.5440    -0.0010    -2.0630 c          1 CQK       0.588600
@<TRIPOS>BOND
     1     4     6 ar
     2     4    11 ar
     3     6     5 ar
     4    11     2 ar
     5     5     1 1
     6     5     3 ar
     7    10     1 1
     8    10     8 2
     9     1     9 2
    10     8     7 1
    11     2     3 ar
    12     2    21 1
    13     9     7 1
    14    21    12 1
    15    21    14 2
    16    12    13 1
    17     3    15 1
    18     4    16 1
    19     6    17 1
    20     7    18 1
    21    12    19 1
    22    13    20 1
@<TRIPOS>SUBSTRUCTURE
     1 CQK         1 TEMP              0 ****  ****    0 ROOT
