@<TRIPOS>MOLECULE
CQK
   21    22     1     0     0
SMALL
bcc


@<TRIPOS>ATOM
      1 CAG          0.0000     0.0000     0.0000 cc         1 CQK       0.560500
      2 CAH         -3.0680    -0.0010    -2.1940 ca         1 CQK       0.313800
      3 CAJ         -2.2760    -0.0010    -1.0500 ca         1 CQK      -0.116300
      4 CAK         -1.2100    -0.0010    -3.5670 ca         1 CQK       0.390200
      5 CAL         -0.8860    -0.0010    -1.1910 ca         1 CQK      -0.096500
      6 CAM         -0.3520    -0.0010    -2.4820 ca         1 CQK      -0.175300
      7 NAC          1.7130     0.0000     1.2270 na         1 CQK       0.692900
      8 NAD          0.6860     0.0100     2.0040 nd         1 CQK      -0.370800
      9 NAE          1.3190     0.0000     0.0000 nd         1 CQK      -0.700800
     10 NAF         -0.3840     0.0060     1.2840 nc         1 CQK      -0.325000
     11 NAI         -2.5150     0.0050    -3.4010 nb         1 CQK      -0.574000
     12 NAO         -5.3180    -0.0010    -3.1670 ns         1 CQK      -0.037400
     13 OAA         -6.7280    -0.0000    -3.0420 oh         1 CQK      -0.442100
     14 OAB         -5.0560    -0.0010    -0.9620 o          1 CQK      -0.618100
     15 H1          -2.7220    -0.1960    -0.0820 ha         1 CQK       0.157000
     16 H2          -0.8010     0.0020    -4.5700 h4         1 CQK      -0.015900
     17 H3           0.7210    -0.0060    -2.6310 ha         1 CQK       0.129000
     18 H4           2.6670     0.0000     1.5290 hn         1 CQK       0.178700
     19 H5          -4.8960     0.0230    -4.0740 hn         1 CQK       0.173500
     20 H6          -7.1190    -0.0830    -3.8960 ho         1 CQK       0.393000
     21 CAN         -4.5440    -0.0010    -2.0630 c          1 CQK       0.483600
@<TRIPOS>BOND
     1     1     5 1   
     2     1     9 2   
     3     1    10 1   
     4     2     3 ar  
     5     2    11 ar  
     6     2    21 1   
     7     3     5 ar  
     8     3    15 1   
     9     4     6 ar  
    10     4    11 ar  
    11     4    16 1   
    12     5     6 ar  
    13     6    17 1   
    14     7     8 1   
    15     7     9 1   
    16     7    18 1   
    17     8    10 2   
    18    12    13 1   
    19    12    19 1   
    20    12    21 1   
    21    13    20 1   
    22    14    21 2   
@<TRIPOS>SUBSTRUCTURE
     1 CQK         1 TEMP              0 ****  ****    0 ROOT
