@<TRIPOS>MOLECULE
molecule
   18    19     1     0     0
SMALL
bcc


@<TRIPOS>ATOM
      1 OAA          0.0000     0.0000     0.0000 oh         1 CQL      -0.491100
      2 IAC         -1.4550    -0.0020    -2.7920 i          1 CQL      -0.136900
      3 CAD          4.9800     0.0000     0.0000 ca         1 CQL      -0.243300
      4 CAE          3.9770     0.0000     0.9670 ca         1 CQL       0.433200
      5 CAF          4.6470    -0.0010    -1.3250 ca         1 CQL      -0.079000
      6 CAG          1.5350    -0.0030    -3.3030 ca         1 CQL      -0.084000
      7 NAH          2.7060     0.0000     0.6440 nb         1 CQL      -0.655000
      8 CAI          2.8650    -0.0020    -3.0100 ca         1 CQL       0.031400
      9 CAJ          0.9470    -0.0010    -0.9750 ca         1 CQL       0.111800
     10 CAK          0.5790    -0.0020    -2.2900 ca         1 CQL       0.018900
     11 CAL          3.2820    -0.0010    -1.6680 ca         1 CQL      -0.135300
     12 CAM          2.3150    -0.0000    -0.6320 ca         1 CQL       0.403600
     13 HOAA        -0.3530    -0.8690     0.0970 ho         1 CQL       0.432000
     14 HAD          6.0210    -0.0000     0.2980 ha         1 CQL       0.144000
     15 HAE          4.2550     0.0000     2.0140 h4         1 CQL       0.029100
     16 HAF          5.4130    -0.0010    -2.0910 ha         1 CQL       0.156000
     17 HAG          1.2160    -0.0040    -4.3380 ha         1 CQL       0.158000
     18 ClAB         4.0400    -0.0040    -4.2880 cl         1 CQL      -0.093400
@<TRIPOS>BOND
     1     1     9 1
     2    18     8 1
     3     2    10 1
     4     3     4 ar
     5     3     5 ar
     6     4     7 ar
     7     5    11 ar
     8     6     8 ar
     9     6    10 ar
    10     7    12 ar
    11     8    11 ar
    12     9    10 ar
    13     9    12 ar
    14    11    12 ar
    15     1    13 1
    16     3    14 1
    17     4    15 1
    18     5    16 1
    19     6    17 1
@<TRIPOS>SUBSTRUCTURE
     1 CQL         1 TEMP              0 ****  ****    0 ROOT
