@<TRIPOS>MOLECULE
CQL
   18    17     1     0     0
SMALL
bcc


@<TRIPOS>ATOM
      1 OAA        -0.3330    0.6850   -1.0060 oh        1 CQL     -0.476100
      2 IAC         1.1570   -2.2960   -2.6260 i         1 CQL     -0.094800
      3 CAD         5.5750   -1.1890   -0.2940 c3        1 CQL     -0.026000
      4 CAE         1.1650    1.0800    2.4010 c1        1 CQL      0.469800
      5 CAF         4.2470   -0.6920   -0.1610 c1        1 CQL     -0.070100
      6 CAG         1.7640    0.4740   -3.2860 c1        1 CQL      0.022200
      7 NAH         1.4310    0.6880    1.3160 n1        1 CQL     -1.112500
      8 CAI         2.1700    1.2310   -4.2640 c2        1 CQL     -0.054700
      9 CAJ         0.9560    0.2140   -1.0050 ce        1 CQL      0.149100
     10 CAK         1.3450   -0.2940   -2.3250 ce        1 CQL      0.050700
     11 CAL         3.1270   -0.2790   -0.0610 ch        1 CQL     -0.185300
     12 CAM         1.8090    0.2170    0.0720 cf        1 CQL      0.605000
     13 HOAA       -0.5840    0.9550   -0.1090 ho        1 CQL      0.433000
     14 HAD         5.5640   -2.2960   -0.4770 hc        1 CQL      0.062700
     15 HAE         6.0960   -0.6930   -1.1540 hc        1 CQL      0.062700
     16 HAF         6.1620   -0.9890    0.6400 hc        1 CQL      0.062700
     17 HAG         1.4850    1.6850   -4.9970 h4        1 CQL      0.180000
     18 CLAB        3.7960    1.6070   -4.5320 cl        1 CQL     -0.076400
@<TRIPOS>BOND
     1    1    9 1   
     2    1   13 1   
     3    2   10 1   
     4    3    5 1   
     5    3   14 1   
     6    3   15 1   
     7    3   16 1   
     8    4    7 3   
     9    5   11 3   
    10    6    8 2   
    11    6   10 2   
    12    7   12 1   
    13    8   17 1   
    14    8   18 1   
    15    9   10 1   
    16    9   12 2   
    17   11   12 1   
@<TRIPOS>SUBSTRUCTURE
     1 CQL         1 TEMP              0 ****  ****    0 ROOT
