@<TRIPOS>MOLECULE
molecule
   61    63     1     0     0
SMALL
bcc


@<TRIPOS>ATOM
      1 C1           0.0000     0.0000     0.0000 c3         1 CQN       0.100400
      2 C10          1.4310    -1.9140    -2.9390 c3         1 CQN      -0.094400
      3 C11          2.2760    -0.9180    -2.1170 c3         1 CQN       0.146800
      4 C12          4.2720     1.2010     1.3350 c3         1 CQN       0.284100
      5 C13          4.5330     1.5070    -0.1170 ca         1 CQN      -0.106300
      6 C14          3.6330     2.2730    -0.8340 ca         1 CQN      -0.116500
      7 C15          3.8710     2.5520    -2.1660 ca         1 CQN      -0.128500
      8 C16          5.0100     2.0670    -2.7810 ca         1 CQN      -0.127000
      9 C17          5.9100     1.3010    -2.0640 ca         1 CQN      -0.128500
     10 C18          5.6740     1.0260    -0.7300 ca         1 CQN      -0.116500
     11 C19          4.1680    -1.2670     1.5450 ca         1 CQN       0.228600
     12 C2           1.5300     0.0000     0.0000 c3         1 CQN       0.131500
     13 C20          5.5550    -1.3140     1.4880 ca         1 CQN      -0.201000
     14 C21          6.2080    -2.5260     1.5890 ca         1 CQN      -0.088500
     15 C22          5.4830    -3.6930     1.7480 ca         1 CQN      -0.187000
     16 C23          4.1020    -3.6500     1.8080 ca         1 CQN      -0.088500
     17 C24          3.4430    -2.4400     1.7120 ca         1 CQN      -0.201000
     18 C3           2.0400     0.0000     1.4430 c3         1 CQN       0.251800
     19 C4          -1.8850     0.1580    -1.4710 c3         1 CQN       0.139400
     20 C5          -2.2790     0.1070    -2.9490 c3         1 CQN      -0.075700
     21 C6          -2.1150    -1.3210    -3.4720 c3         1 CQN      -0.087600
     22 C7          -3.7370     0.5430    -3.1030 c3         1 CQN      -0.087600
     23 C8           1.0410    -2.3030    -0.5990 c3         1 CQN       0.146800
     24 C9           1.1830    -3.0720    -1.9360 c3         1 CQN      -0.094400
     25 N2           2.0200    -1.1980    -0.6930 n3         1 CQN      -0.690600
     26 N3           3.5040    -0.0430     1.4430 nh         1 CQN      -0.715000
     27 O1          -0.4760    -0.0430    -1.3470 os         1 CQN      -0.426600
     28 H1          -0.3610    -0.8680     0.5390 h1         1 CQN       0.028200
     29 H2          -0.3610     0.9000     0.4820 h1         1 CQN       0.028200
     30 H3           1.9880    -2.2680    -3.7990 hc         1 CQN       0.048200
     31 H4           0.4940    -1.4620    -3.2400 hc         1 CQN       0.048200
     32 H5           3.3270    -1.0600    -2.3360 h1         1 CQN       0.048200
     33 H6           1.9780     0.0970    -2.3520 h1         1 CQN       0.048200
     34 H7           3.7100     2.0130     1.7800 h1         1 CQN       0.053700
     35 H8           5.2160     1.0890     1.8560 h1         1 CQN       0.053700
     36 H9           2.7400     2.6530    -0.3520 ha         1 CQN       0.131500
     37 H10          3.1660     3.1530    -2.7280 ha         1 CQN       0.129000
     38 H11          5.1960     2.2850    -3.8260 ha         1 CQN       0.128000
     39 H12          6.8030     0.9220    -2.5460 ha         1 CQN       0.129000
     40 H13          6.3790     0.4250    -0.1680 ha         1 CQN       0.131500
     41 H14          1.8910     0.8850    -0.5100 h1         1 CQN       0.079700
     42 H15          6.1240    -0.4010     1.3600 ha         1 CQN       0.129000
     43 H16          7.2900    -2.5640     1.5430 ha         1 CQN       0.122000
     44 H17          5.9970    -4.6430     1.8260 ha         1 CQN       0.123000
     45 H18          3.5370    -4.5650     1.9350 ha         1 CQN       0.122000
     46 H19          2.3610    -2.4070     1.7580 ha         1 CQN       0.129000
     47 H20          1.7040     0.9000     1.9440 h1         1 CQN       0.048700
     48 H21          1.6530    -0.8680     1.9620 h1         1 CQN       0.048700
     49 H22         -2.4100    -0.6200    -0.9300 h1         1 CQN       0.023700
     50 H23         -2.1500     1.1250    -1.0600 h1         1 CQN       0.023700
     51 H24         -1.6410     0.7740    -3.5160 hc         1 CQN       0.062700
     52 H25         -1.2650    -1.3650    -4.1420 hc         1 CQN       0.036867
     53 H26         -3.0110    -1.6160    -4.0050 hc         1 CQN       0.036867
     54 H27         -1.9530    -1.9950    -2.6390 hc         1 CQN       0.036867
     55 H28         -4.3700    -0.0880    -2.4900 hc         1 CQN       0.036867
     56 H29         -4.0340     0.4510    -4.1410 hc         1 CQN       0.036867
     57 H30         -3.8410     1.5740    -2.7880 hc         1 CQN       0.036867
     58 H31          1.2850    -2.9510     0.2340 h1         1 CQN       0.048200
     59 H32          0.0370    -1.9080    -0.4970 h1         1 CQN       0.048200
     60 H33          2.0310    -3.7450    -1.9060 hc         1 CQN       0.048200
     61 H34          0.2670    -3.5990    -2.1760 hc         1 CQN       0.048200
@<TRIPOS>BOND
     1    16    15 ar
     2    16    17 ar
     3    15    14 ar
     4    17    11 ar
     5    14    13 ar
     6     9    10 ar
     7     9     8 ar
     8    10     5 ar
     9     8     7 ar
    10    11    13 ar
    11    11    26 1
    12     5     4 1
    13     5     6 ar
    14     7     6 ar
    15     4    26 1
    16    26    18 1
    17    18    12 1
    18     2     3 1
    19     2    24 1
    20    12    25 1
    21    12     1 1
    22     3    25 1
    23    21    20 1
    24    24    23 1
    25    25    23 1
    26     1    27 1
    27    27    19 1
    28    20    22 1
    29    20    19 1
    30     1    28 1
    31     1    29 1
    32     2    30 1
    33     2    31 1
    34     3    32 1
    35     3    33 1
    36     4    34 1
    37     4    35 1
    38     6    36 1
    39     7    37 1
    40     8    38 1
    41     9    39 1
    42    10    40 1
    43    12    41 1
    44    13    42 1
    45    14    43 1
    46    15    44 1
    47    16    45 1
    48    17    46 1
    49    18    47 1
    50    18    48 1
    51    19    49 1
    52    19    50 1
    53    20    51 1
    54    21    52 1
    55    21    53 1
    56    21    54 1
    57    22    55 1
    58    22    56 1
    59    22    57 1
    60    23    58 1
    61    23    59 1
    62    24    60 1
    63    24    61 1
@<TRIPOS>SUBSTRUCTURE
     1 CQN         1 TEMP              0 ****  ****    0 ROOT
