@<TRIPOS>MOLECULE
CQN
   61    63     1     0     0
SMALL
bcc


@<TRIPOS>ATOM
      1 C1           0.0000     0.0000     0.0000 c3         1 CQN       0.171400
      2 C10          1.4310    -1.9140    -2.9390 c3         1 CQN      -0.038900
      3 C11          2.2760    -0.9180    -2.1170 c3         1 CQN       0.123800
      4 C12          4.2720     1.2010     1.3350 c3         1 CQN       0.228100
      5 C13          4.5330     1.5070    -0.1170 ca         1 CQN      -0.114300
      6 C14          3.6330     2.2730    -0.8340 ca         1 CQN      -0.096500
      7 C15          3.8710     2.5520    -2.1660 ca         1 CQN      -0.099000
      8 C16          5.0100     2.0670    -2.7810 ca         1 CQN      -0.100000
      9 C17          5.9100     1.3010    -2.0640 ca         1 CQN      -0.099000
     10 C18          5.6740     1.0260    -0.7300 ca         1 CQN      -0.096500
     11 C19          4.1680    -1.2670     1.5450 ca         1 CQN       0.102600
     12 C2           1.5300     0.0000     0.0000 c3         1 CQN       0.068500
     13 C20          5.5550    -1.3140     1.4880 ca         1 CQN      -0.197000
     14 C21          6.2080    -2.5260     1.5890 ca         1 CQN      -0.053500
     15 C22          5.4830    -3.6930     1.7480 ca         1 CQN      -0.167000
     16 C23          4.1020    -3.6500     1.8080 ca         1 CQN      -0.053500
     17 C24          3.4430    -2.4400     1.7120 ca         1 CQN      -0.197000
     18 C3           2.0400     0.0000     1.4430 c3         1 CQN       0.177800
     19 C4          -1.8850     0.1580    -1.4710 c3         1 CQN       0.208400
     20 C5          -2.2790     0.1070    -2.9490 c3         1 CQN      -0.060700
     21 C6          -2.1150    -1.3210    -3.4720 c3         1 CQN       0.002900
     22 C7          -3.7370     0.5430    -3.1030 c3         1 CQN       0.002900
     23 C8           1.0410    -2.3030    -0.5990 c3         1 CQN       0.123800
     24 C9           1.1830    -3.0720    -1.9360 c3         1 CQN      -0.038900
     25 N2           2.0200    -1.1980    -0.6930 n3         1 CQN      -0.519600
     26 N3           3.5040    -0.0430     1.4430 nh         1 CQN      -0.363000
     27 O1          -0.4760    -0.0430    -1.3470 os         1 CQN      -0.410600
     28 H1          -0.3610    -0.8680     0.5390 h1         1 CQN       0.003700
     29 H2          -0.3610     0.9000     0.4820 h1         1 CQN       0.003700
     30 H3           1.9880    -2.2680    -3.7990 hc         1 CQN       0.021450
     31 H4           0.4940    -1.4620    -3.2400 hc         1 CQN       0.021450
     32 H5           3.3270    -1.0600    -2.3360 h1         1 CQN       0.027450
     33 H6           1.9780     0.0970    -2.3520 h1         1 CQN       0.027450
     34 H7           3.7100     2.0130     1.7800 h1         1 CQN       0.027200
     35 H8           5.2160     1.0890     1.8560 h1         1 CQN       0.027200
     36 H9           2.7400     2.6530    -0.3520 ha         1 CQN       0.112000
     37 H10          3.1660     3.1530    -2.7280 ha         1 CQN       0.102500
     38 H11          5.1960     2.2850    -3.8260 ha         1 CQN       0.102000
     39 H12          6.8030     0.9220    -2.5460 ha         1 CQN       0.102500
     40 H13          6.3790     0.4250    -0.1680 ha         1 CQN       0.112000
     41 H14          1.8910     0.8850    -0.5100 h1         1 CQN       0.064700
     42 H15          6.1240    -0.4010     1.3600 ha         1 CQN       0.120500
     43 H16          7.2900    -2.5640     1.5430 ha         1 CQN       0.094000
     44 H17          5.9970    -4.6430     1.8260 ha         1 CQN       0.100000
     45 H18          3.5370    -4.5650     1.9350 ha         1 CQN       0.094000
     46 H19          2.3610    -2.4070     1.7580 ha         1 CQN       0.120500
     47 H20          1.7040     0.9000     1.9440 h1         1 CQN       0.025200
     48 H21          1.6530    -0.8680     1.9620 h1         1 CQN       0.025200
     49 H22         -2.4100    -0.6200    -0.9300 h1         1 CQN      -0.006800
     50 H23         -2.1500     1.1250    -1.0600 h1         1 CQN      -0.006800
     51 H24         -1.6410     0.7740    -3.5160 hc         1 CQN       0.034700
     52 H25         -1.2650    -1.3650    -4.1420 hc         1 CQN       0.006533
     53 H26         -3.0110    -1.6160    -4.0050 hc         1 CQN       0.006533
     54 H27         -1.9530    -1.9950    -2.6390 hc         1 CQN       0.006533
     55 H28         -4.3700    -0.0880    -2.4900 hc         1 CQN       0.006533
     56 H29         -4.0340     0.4510    -4.1410 hc         1 CQN       0.006533
     57 H30         -3.8410     1.5740    -2.7880 hc         1 CQN       0.006533
     58 H31          1.2850    -2.9510     0.2340 h1         1 CQN       0.027450
     59 H32          0.0370    -1.9080    -0.4970 h1         1 CQN       0.027450
     60 H33          2.0310    -3.7450    -1.9060 hc         1 CQN       0.021450
     61 H34          0.2670    -3.5990    -2.1760 hc         1 CQN       0.021450
@<TRIPOS>BOND
     1     1    12 1   
     2     1    27 1   
     3     1    28 1   
     4     1    29 1   
     5     2     3 1   
     6     2    24 1   
     7     2    30 1   
     8     2    31 1   
     9     3    25 1   
    10     3    32 1   
    11     3    33 1   
    12     4     5 1   
    13     4    26 1   
    14     4    34 1   
    15     4    35 1   
    16     5     6 ar  
    17     5    10 ar  
    18     6     7 ar  
    19     6    36 1   
    20     7     8 ar  
    21     7    37 1   
    22     8     9 ar  
    23     8    38 1   
    24     9    10 ar  
    25     9    39 1   
    26    10    40 1   
    27    11    13 ar  
    28    11    17 ar  
    29    11    26 1   
    30    12    18 1   
    31    12    25 1   
    32    12    41 1   
    33    13    14 ar  
    34    13    42 1   
    35    14    15 ar  
    36    14    43 1   
    37    15    16 ar  
    38    15    44 1   
    39    16    17 ar  
    40    16    45 1   
    41    17    46 1   
    42    18    26 1   
    43    18    47 1   
    44    18    48 1   
    45    19    20 1   
    46    19    27 1   
    47    19    49 1   
    48    19    50 1   
    49    20    21 1   
    50    20    22 1   
    51    20    51 1   
    52    21    52 1   
    53    21    53 1   
    54    21    54 1   
    55    22    55 1   
    56    22    56 1   
    57    22    57 1   
    58    23    24 1   
    59    23    25 1   
    60    23    58 1   
    61    23    59 1   
    62    24    60 1   
    63    24    61 1   
@<TRIPOS>SUBSTRUCTURE
     1 CQN         1 TEMP              0 ****  ****    0 ROOT
