@<TRIPOS>MOLECULE
molecule
   51    54     1     0     0
SMALL
bcc


@<TRIPOS>ATOM
      1 Cl1          0.0000     0.0000     0.0000 cl         1 CQP      -0.108400
      2 C2           1.7370     0.0000     0.0000 ca         1 CQP       0.036400
      3 C3           2.4280     0.0000     1.1980 ca         1 CQP      -0.124500
      4 C4           3.8100     0.0010     1.1980 ca         1 CQP      -0.098500
      5 C5           4.5010    -0.0000     0.0010 ca         1 CQP      -0.091300
      6 C6           6.0080    -0.0010     0.0010 c3         1 CQP       0.172700
      7 O7           6.4850    -1.3470     0.0010 os         1 CQP      -0.396600
      8 C8           7.9120    -1.2800     0.0020 c3         1 CQP       0.123100
      9 C10          8.4510    -1.3260     1.4480 c3         1 CQP       0.114800
     10 N10          9.6930    -2.1360     1.3590 n7         1 CQP      -0.788200
     11 C13          9.3550    -3.2190     0.4010 c3         1 CQP       0.136500
     12 C14         10.6280    -3.8110    -0.2080 c3         1 CQP       0.247800
     13 N15         11.5070    -4.2850     0.8640 n7         1 CQP      -0.913100
     14 S16         12.7640    -5.3040     0.5130 sy         1 CQP       1.428200
     15 O17         12.2160    -6.3220    -0.3130 o          1 CQP      -0.635800
     16 O18         13.4420    -5.5200     1.7440 o          1 CQP      -0.635800
     17 C19         13.8940    -4.4160    -0.5070 ca         1 CQP      -0.312500
     18 C20         14.1280    -4.8220    -1.7860 ca         1 CQP       0.012000
     19 C21         15.0180    -4.1320    -2.6060 ca         1 CQP      -0.166000
     20 C22         15.6810    -3.0300    -2.1550 ca         1 CQP      -0.042000
     21 C23         15.4650    -2.5820    -0.8420 ca         1 CQP      -0.192300
     22 C24         16.1200    -1.4550    -0.3210 ca         1 CQP       0.456200
     23 N25         15.8860    -1.0750     0.9130 nb         1 CQP      -0.698000
     24 C26         15.0430    -1.7140     1.7130 ca         1 CQP       0.437200
     25 C27         14.3600    -2.8180     1.3040 ca         1 CQP      -0.254300
     26 C28         14.5540    -3.2840    -0.0100 ca         1 CQP       0.068000
     27 C29          3.8110    -0.0020    -1.1970 ca         1 CQP      -0.098500
     28 C31          8.5070    -2.5250    -0.6900 c3         1 CQP      -0.077400
     29 C30          2.4280    -0.0070    -1.1980 ca         1 CQP      -0.124500
     30 H3           1.8860     0.0010     2.1360 ha         1 CQP       0.146000
     31 H4           4.3520     0.0010     2.1360 ha         1 CQP       0.138500
     32 H6C1         6.3690     0.5100    -0.8840 h1         1 CQP       0.034700
     33 H6C2         6.3690     0.5110     0.8850 h1         1 CQP       0.034700
     34 H8           8.2510    -0.3790    -0.4950 h1         1 CQP       0.054700
     35 H101         7.7340    -1.8080     2.1010 h1         1 CQP       0.051700
     36 H102         8.6780    -0.3260     1.7960 h1         1 CQP       0.051700
     37 H10          9.8970    -2.5340     2.2540 hn         1 CQP       0.346800
     38 H13          8.7740    -3.9880     0.8950 h1         1 CQP       0.045700
     39 H141        11.1400    -3.0500    -0.7850 h1         1 CQP       0.055200
     40 H142        10.3680    -4.6400    -0.8550 h1         1 CQP       0.055200
     41 H15         11.3160    -4.0350     1.8140 hn         1 CQP       0.453800
     42 H20         13.6150    -5.6950    -2.1710 ha         1 CQP       0.158000
     43 H21         15.1860    -4.4760    -3.6190 ha         1 CQP       0.139000
     44 H22         16.3700    -2.5040    -2.8040 ha         1 CQP       0.138000
     45 H24         16.8180    -0.9000    -0.9370 h4         1 CQP       0.027100
     46 H26         14.8960    -1.3470     2.7210 h4         1 CQP       0.025100
     47 H27         13.6760    -3.3240     1.9750 ha         1 CQP       0.154000
     48 H29          4.3530    -0.0050    -2.1350 ha         1 CQP       0.138500
     49 H311         7.7140    -3.1830    -1.0240 hc         1 CQP       0.065200
     50 H312         9.1350    -2.2280    -1.5210 hc         1 CQP       0.065200
     51 H30          1.8870    -0.0080    -2.1360 ha         1 CQP       0.146000
@<TRIPOS>BOND
     1     1     2 1
     2     2     3 ar
     3     2    29 ar
     4     3     4 ar
     5     3    30 1
     6     4     5 ar
     7     4    31 1
     8     5     6 1
     9     5    27 ar
    10     6     7 1
    11     6    32 1
    12     6    33 1
    13     7     8 1
    14     8     9 1
    15     8    28 1
    16     8    34 1
    17     9    10 1
    18     9    35 1
    19     9    36 1
    20    10    11 1
    21    10    37 1
    22    11    12 1
    23    11    28 1
    24    11    38 1
    25    12    13 1
    26    12    39 1
    27    12    40 1
    28    13    14 1
    29    13    41 1
    30    14    15 2
    31    14    16 2
    32    14    17 1
    33    17    18 ar
    34    17    26 ar
    35    18    19 ar
    36    18    42 1
    37    19    20 ar
    38    19    43 1
    39    20    21 ar
    40    20    44 1
    41    21    22 ar
    42    21    26 ar
    43    22    23 ar
    44    22    45 1
    45    23    24 ar
    46    24    25 ar
    47    24    46 1
    48    25    26 ar
    49    25    47 1
    50    27    29 ar
    51    27    48 1
    52    28    49 1
    53    28    50 1
    54    29    51 1
@<TRIPOS>SUBSTRUCTURE
     1 CQP         1 TEMP              0 ****  ****    0 ROOT
