@<TRIPOS>MOLECULE
molecule
   66    69     1     0     0
SMALL
bcc


@<TRIPOS>ATOM
      1 C01          0.0000     0.0000     0.0000 ca         1 CQQ       0.441200
      2 N02          1.3180     0.0000     0.0000 nb         1 CQQ      -0.694000
      3 C03          2.0130     0.0000     1.1200 ca         1 CQQ       0.431200
      4 C04          1.3840    -0.0000     2.3510 ca         1 CQQ      -0.264300
      5 C05          0.0000     0.0000     2.4040 ca         1 CQQ      -0.047000
      6 C06         -0.7090    -0.0000     1.2000 cp         1 CQQ      -0.282800
      7 C07         -2.1920    -0.0010     1.1980 cp         1 CQQ       0.565800
      8 N08         -2.8690     0.1050     2.3400 nb         1 CQQ      -0.796000
      9 C09         -2.9000    -0.1060    -0.0010 ca         1 CQQ      -0.431600
     10 C10         -4.2830    -0.1020     0.0460 ca         1 CQQ       0.498200
     11 N11         -4.8900     0.0010     1.2190 nb         1 CQQ      -0.789000
     12 C12         -4.1930     0.1050     2.3410 ca         1 CQQ       0.943900
     13 N13         -4.8660     0.2170     3.5460 nu         1 CQQ      -0.750300
     14 C14         -6.2610     0.3260     3.5600 ca         1 CQQ       0.173600
     15 C15         -6.9900    -0.2320     4.6000 ca         1 CQQ      -0.161000
     16 C16         -6.9150     0.9990     2.5360 ca         1 CQQ      -0.141000
     17 C17         -8.2920     1.1080     2.5490 ca         1 CQQ      -0.099000
     18 C18         -9.0230     0.5490     3.5800 ca         1 CQQ      -0.179000
     19 C19         -8.3740    -0.1200     4.6110 ca         1 CQQ       0.070600
     20 N20         -9.1140    -0.6860     5.6540 ns         1 CQQ      -0.476100
     21 C21         -8.6190    -0.6840     6.9080 c          1 CQQ       0.680700
     22 O22         -7.4960    -0.2700     7.1190 o          1 CQQ      -0.600100
     23 C23         -9.4430    -1.1860     8.0250 ca         1 CQQ      -0.172600
     24 C24         -8.9330    -1.1860     9.3260 ca         1 CQQ      -0.065500
     25 C25         -9.7030    -1.6540    10.3670 ca         1 CQQ      -0.158500
     26 C26        -10.7370    -1.6570     7.7860 ca         1 CQQ      -0.065500
     27 C27        -11.5020    -2.1240     8.8300 ca         1 CQQ      -0.158500
     28 C28        -10.9890    -2.1270    10.1240 ca         1 CQQ       0.082600
     29 N29        -11.7660    -2.6000    11.1800 ns         1 CQQ      -0.479100
     30 C30        -11.1900    -3.2830    12.1890 c          1 CQQ       0.658100
     31 O31         -9.9850    -3.4120    12.2220 o          1 CQQ      -0.583100
     32 C32        -12.0420    -3.8840    13.2770 c3         1 CQQ      -0.158400
     33 C33        -11.1470    -4.5980    14.2910 c3         1 CQQ      -0.067400
     34 C34        -12.0130    -5.2090    15.3930 c3         1 CQQ       0.160800
     35 N35        -11.1530    -5.8950    16.3680 n3         1 CQQ      -0.729600
     36 C36        -11.9160    -6.2880    17.5590 c3         1 CQQ       0.150100
     37 C37        -10.4900    -7.0570    15.7600 c3         1 CQQ       0.150100
     38 H1          -0.5370    -0.0000    -0.9410 h4         1 CQQ       0.027100
     39 H2           3.0960    -0.0000     1.0760 h4         1 CQQ       0.024100
     40 H3           1.9660    -0.0000     3.2650 ha         1 CQQ       0.142000
     41 H4          -0.5200    -0.0000     3.3540 ha         1 CQQ       0.162000
     42 H5          -2.3790    -0.1890    -0.9470 ha         1 CQQ       0.146000
     43 H6          -4.8630    -0.1840    -0.8650 h4         1 CQQ       0.031100
     44 H7          -4.3530     0.2560     4.4040 hn         1 CQQ       0.471800
     45 H8          -6.4810    -0.7540     5.4010 ha         1 CQQ       0.168000
     46 H9          -6.3460     1.4380     1.7260 ha         1 CQQ       0.156000
     47 H10         -8.8010     1.6310     1.7490 ha         1 CQQ       0.132000
     48 H11        -10.1020     0.6370     3.5880 ha         1 CQQ       0.127000
     49 H12         -9.9880    -1.1330     5.4620 hn         1 CQQ       0.325500
     50 H13         -7.9320    -0.8180     9.5150 ha         1 CQQ       0.143500
     51 H14         -9.3070    -1.6550    11.3750 ha         1 CQQ       0.151500
     52 H15        -11.1370    -1.6550     6.7790 ha         1 CQQ       0.143500
     53 H16        -12.5040    -2.4910     8.6450 ha         1 CQQ       0.151500
     54 H17        -12.7640    -2.5290    11.1340 hn         1 CQQ       0.324500
     55 H18        -12.7340    -4.5960    12.8410 hc         1 CQQ       0.061200
     56 H19        -12.5980    -3.1000    13.7750 hc         1 CQQ       0.061200
     57 H20        -10.5900    -5.3830    13.7920 hc         1 CQQ       0.068200
     58 H21        -12.7030    -5.9210    14.9580 h1         1 CQQ       0.030200
     59 H22        -12.5690    -4.4250    15.8920 h1         1 CQQ       0.030200
     60 H24        -11.2600    -6.7960    18.2570 h1         1 CQQ       0.032700
     61 H25        -12.3310    -5.4050    18.0310 h1         1 CQQ       0.032700
     62 H26        -12.7200    -6.9540    17.2700 h1         1 CQQ       0.032700
     63 H27        -10.3410    -7.8220    16.5120 h1         1 CQQ       0.032700
     64 H28         -9.5310    -6.7560    15.3560 h1         1 CQQ       0.032700
     65 H29        -11.1100    -7.4500    14.9630 h1         1 CQQ       0.032700
     66 H30        -10.4560    -3.8860    14.7260 hc         1 CQQ       0.068200
@<TRIPOS>BOND
     1    17    16 ar
     2    17    18 ar
     3    22    21 2
     4    16    14 ar
     5    18    19 ar
     6    26    27 ar
     7    26    23 ar
     8    21    23 1
     9    21    20 1
    10    27    28 ar
    11    23    24 ar
    12    19    15 ar
    13    19    20 1
    14    14    13 1
    15    14    15 ar
    16    28    29 1
    17    28    25 ar
    18    24    25 ar
    19    31    30 2
    20    13    12 1
    21    29    30 1
    22    30    32 1
    23    12     8 ar
    24    12    11 ar
    25     8     7 ar
    26     1     2 ar
    27     1     6 ar
    28     2     3 ar
    29    11    10 ar
    30     7     6 1
    31     7     9 ar
    32     6     5 ar
    33     3     4 ar
    34    10     9 ar
    35     5     4 ar
    36    32    33 1
    37    33    34 1
    38    34    35 1
    39    35    37 1
    40    35    36 1
    41     1    38 1
    42     3    39 1
    43     4    40 1
    44     5    41 1
    45     9    42 1
    46    10    43 1
    47    13    44 1
    48    15    45 1
    49    16    46 1
    50    17    47 1
    51    18    48 1
    52    20    49 1
    53    24    50 1
    54    25    51 1
    55    26    52 1
    56    27    53 1
    57    29    54 1
    58    32    55 1
    59    32    56 1
    60    33    57 1
    61    34    58 1
    62    34    59 1
    63    36    60 1
    64    36    61 1
    65    36    62 1
    66    37    63 1
    67    37    64 1
    68    37    65 1
    69    33    66 1
@<TRIPOS>SUBSTRUCTURE
     1 CQQ         1 TEMP              0 ****  ****    0 ROOT
