@<TRIPOS>MOLECULE
CQS
   44    46     1     0     0
SMALL
bcc


@<TRIPOS>ATOM
      1 C10          0.0000     0.0000     0.0000 c          1 CQS       0.558100
      2 C11          1.5070     0.0000     0.0000 c3         1 CQS      -0.095700
      3 C14          2.3550    -1.0940    -2.1090 cc         1 CQS       0.238700
      4 C16          2.6640     0.6180    -3.4030 ca         1 CQS      -0.228200
      5 C17          2.1760     1.1030    -2.1770 ca         1 CQS       0.268800
      6 C18          2.9400     1.5470    -4.4210 ca         1 CQS       0.595200
      7 C01         -6.2310     1.1970     2.6080 ca         1 CQS       0.018000
      8 C02         -4.8480     1.1970     2.6060 ca         1 CQS      -0.102500
      9 C03         -4.1570    -0.0000     2.6070 ca         1 CQS       0.021700
     10 C04         -4.8490    -1.1970     2.6070 ca         1 CQS      -0.102500
     11 C05         -6.2310    -1.1970     2.6050 ca         1 CQS       0.018000
     12 C06         -6.9220     0.0010     2.6060 ca         1 CQS      -0.232500
     13 C07         -2.6500    -0.0010     2.6080 c3         1 CQS      -0.005100
     14 C20          2.2680     3.2440    -3.0070 ca         1 CQS       0.687900
     15 N09         -0.6750     0.0000     1.1660 ns         1 CQS      -0.200900
     16 N12          1.9960     0.0000    -1.3800 na         1 CQS       0.229000
     17 N15          2.7470    -0.7290    -3.2960 nd         1 CQS      -0.475100
     18 N19          2.7280     2.8360    -4.1760 nb         1 CQS      -0.723000
     19 N21          1.9950     2.4110    -2.0260 nb         1 CQS      -0.683000
     20 N26         -9.1820     0.0080     1.0350 nz         1 CQS      -0.131500
     21 O13         -0.6060     0.0050    -1.0510 o          1 CQS      -0.620100
     22 O24         -9.0830    -1.2500     3.1550 o          1 CQS      -0.495300
     23 O25         -9.0830     1.2490     3.1650 o          1 CQS      -0.495300
     24 S23         -8.6840     0.0010     2.6140 sy         1 CQS       0.937200
     25 H112         1.8680    -0.8850     0.5110 h1         1 CQS       0.052200
     26 H111         1.8680     0.8840     0.5110 h1         1 CQS       0.052200
     27 H141         2.3200    -2.1170    -1.7530 h5         1 CQS       0.028800
     28 H011        -6.7720     2.1350     2.6070 ha         1 CQS       0.127000
     29 H021        -4.3060     2.1350     2.6070 ha         1 CQS       0.135000
     30 H041        -4.3080    -2.1350     2.6070 ha         1 CQS       0.135000
     31 H051        -6.7730    -2.1350     2.6040 ha         1 CQS       0.127000
     32 H071        -2.2900    -0.8860     3.1180 hc         1 CQS       0.038700
     33 H072        -2.2890     0.8830     3.1200 hc         1 CQS       0.038700
     34 H081        -2.5000    -0.8830     0.6540 h1         1 CQS       0.027200
     35 H082        -2.5000     0.8860     0.6550 h1         1 CQS       0.027200
     36 H201         2.1090     4.3040    -2.8500 h5         1 CQS      -0.004900
     37 H091        -0.1750     0.0100     2.0330 hn         1 CQS       0.179500
     38 H222         3.1500     1.6100    -6.4830 hn         1 CQS       0.278300
     39 H221         4.0600     0.3590    -5.7000 hn         1 CQS       0.278300
     40 H261        -8.8330     0.8280     0.5780 hn         1 CQS       0.314133
     41 H262        -8.8310    -0.8070     0.5710 hn         1 CQS       0.314133
     42 C08         -2.1390     0.0000     1.1650 c3         1 CQS       0.062000
     43 H263       -10.1820     0.0060     1.0000 hn         1 CQS       0.314133
     44 N22          3.4240     1.1300    -5.6480 nv         1 CQS      -0.506500
@<TRIPOS>BOND
     1     1     2 1   
     2     1    15 1   
     3     1    21 2   
     4     2    16 1   
     5     2    25 1   
     6     2    26 1   
     7     3    16 1   
     8     3    17 2   
     9     3    27 1   
    10     4     5 ar  
    11     4     6 ar  
    12     4    17 1   
    13     5    16 1   
    14     5    19 ar  
    15     6    18 ar  
    16     6    44 1   
    17     7     8 ar  
    18     7    12 ar  
    19     7    28 1   
    20     8     9 ar  
    21     8    29 1   
    22     9    10 ar  
    23     9    13 1   
    24    10    11 ar  
    25    10    30 1   
    26    11    12 ar  
    27    11    31 1   
    28    12    24 1   
    29    13    32 1   
    30    13    33 1   
    31    13    42 1   
    32    14    18 ar  
    33    14    19 ar  
    34    14    36 1   
    35    15    37 1   
    36    15    42 1   
    37    20    24 1   
    38    20    40 1   
    39    20    41 1   
    40    20    43 1   
    41    22    24 2   
    42    23    24 2   
    43    34    42 1   
    44    35    42 1   
    45    38    44 1   
    46    39    44 1   
@<TRIPOS>SUBSTRUCTURE
     1 CQS         1 TEMP              0 ****  ****    0 ROOT
