@<TRIPOS>MOLECULE
molecule
   42    44     1     0     0
SMALL
bcc


@<TRIPOS>ATOM
      1 CAA          0.0000     0.0000     0.0000 c3         1 CQT       0.139400
      2 CAC         -0.0180     1.1610     2.0940 c3         1 CQT       0.139400
      3 CAD          1.5130     1.1730     2.1150 c3         1 CQT       0.122300
      4 CAE          1.5320     0.0000     0.0000 c3         1 CQT       0.122300
      5 CAG          5.4690    -0.3660     2.9170 c3         1 CQT       0.111000
      6 CAM         10.8600    -1.3640     7.9280 cc         1 CQT       0.566500
      7 CAN          7.6640    -0.9370     5.9720 ca         1 CQT       0.369800
      8 CAP          9.0220    -1.0290     6.2560 ca         1 CQT      -0.155300
      9 CAQ          7.1040    -1.2770     8.1880 ca         1 CQT       0.410200
     10 CAR          9.4220    -1.2570     7.5750 ca         1 CQT      -0.084500
     11 CAS          8.4330    -1.3820     8.5540 ca         1 CQT      -0.208300
     12 CAT          7.2210    -0.6950     4.5790 c          1 CQT       0.573600
     13 CAV          3.9410    -0.3060     2.8700 c3         1 CQT      -0.102400
     14 NAF          2.0170     0.0000     1.3870 n3         1 CQT      -0.729600
     15 NAI         12.6480    -1.6110     9.0160 na         1 CQT       0.197900
     16 NAJ         12.9730    -1.4140     7.7860 nd         1 CQT      -0.191800
     17 NAK         11.3630    -1.5800     9.1260 nd         1 CQT      -0.563800
     18 NAL         11.9000    -1.2640     7.0870 nc         1 CQT      -0.369000
     19 NAO          6.7600    -1.0680     6.9350 nb         1 CQT      -0.682000
     20 NAU          5.9070    -0.6040     4.2940 ns         1 CQT      -0.566900
     21 OAB         -0.4710     1.1300     0.7390 os         1 CQT      -0.424600
     22 OAH          8.0430    -0.5790     3.6910 o          1 CQT      -0.604100
     23 H1          -0.3610    -0.9100     0.4640 h1         1 CQT       0.053450
     24 H2          -0.3610     0.0600    -1.0200 h1         1 CQT       0.053450
     25 H3          -0.3920     2.0550     2.5790 h1         1 CQT       0.053450
     26 H4          -0.3790     0.2830     2.6150 h1         1 CQT       0.053450
     27 H5           1.8730     2.0760     1.6370 h1         1 CQT       0.043450
     28 H6           1.8590     1.1380     3.1410 h1         1 CQT       0.043450
     29 H7           1.8920    -0.8860    -0.5080 h1         1 CQT       0.043450
     30 H8           1.8920     0.8860    -0.5080 h1         1 CQT       0.043450
     31 H9           5.8190    -1.1710     2.2830 h1         1 CQT       0.053700
     32 H10          5.8780     0.5740     2.5660 h1         1 CQT       0.053700
     33 H11          9.7530    -0.7370     5.5120 ha         1 CQT       0.186000
     34 H12          6.3330    -1.3760     8.9430 h4         1 CQT       0.030100
     35 H13          8.7050    -1.5540     9.5880 ha         1 CQT       0.157000
     36 H14          3.5320    -1.2460     3.2220 hc         1 CQT       0.054700
     37 H15          3.5910     0.4990     3.5050 hc         1 CQT       0.054700
     38 H16          3.8330    -0.8640     0.7980 h1         1 CQT       0.039200
     39 H17          3.8930     0.8820     1.0800 h1         1 CQT       0.039200
     40 H19         13.2900    -1.7580     9.7690 hn         1 CQT       0.372700
     41 H20          5.2290    -0.7020     5.0250 hn         1 CQT       0.334500
     42 CAW          3.4840    -0.0580     1.4320 c3         1 CQT       0.166800
@<TRIPOS>BOND
     1     9    11 ar
     2     9    19 ar
     3    11    10 ar
     4    19     7 ar
     5    10     6 1
     6    10     8 ar
     7    17     6 2
     8    17    15 1
     9     6    18 1
    10    15    16 1
    11    18    16 2
    12     7     8 ar
    13     7    12 1
    14    12    22 2
    15    12    20 1
    16    20     5 1
    17     5    13 1
    18    13    42 1
    19    42    14 1
    20    14     4 1
    21    14     3 1
    22     4     1 1
    23     3     2 1
    24     1    21 1
    25     2    21 1
    26     1    23 1
    27     1    24 1
    28     2    25 1
    29     2    26 1
    30     3    27 1
    31     3    28 1
    32     4    29 1
    33     4    30 1
    34     5    31 1
    35     5    32 1
    36     8    33 1
    37     9    34 1
    38    11    35 1
    39    13    36 1
    40    13    37 1
    41    42    38 1
    42    42    39 1
    43    15    40 1
    44    20    41 1
@<TRIPOS>SUBSTRUCTURE
     1 CQT         1 TEMP              0 ****  ****    0 ROOT
