@<TRIPOS>MOLECULE
CQT
   42    44     1     0     0
SMALL
bcc


@<TRIPOS>ATOM
      1 CAA          0.0000     0.0000     0.0000 c3         1 CQT       0.214900
      2 CAC         -0.0180     1.1610     2.0940 c3         1 CQT       0.214900
      3 CAD          1.5130     1.1730     2.1150 c3         1 CQT       0.108300
      4 CAE          1.5320     0.0000     0.0000 c3         1 CQT       0.108300
      5 CAG          5.4690    -0.3660     2.9170 c3         1 CQT       0.048000
      6 CAM         10.8600    -1.3640     7.9280 cc         1 CQT       0.562500
      7 CAN          7.6640    -0.9370     5.9720 ca         1 CQT       0.311800
      8 CAP          9.0220    -1.0290     6.2560 ca         1 CQT      -0.118300
      9 CAQ          7.1040    -1.2770     8.1880 ca         1 CQT       0.389200
     10 CAR          9.4220    -1.2570     7.5750 ca         1 CQT      -0.099500
     11 CAS          8.4330    -1.3820     8.5540 ca         1 CQT      -0.176300
     12 CAT          7.2210    -0.6950     4.5790 c          1 CQT       0.482600
     13 CAV          3.9410    -0.3060     2.8700 c3         1 CQT      -0.051400
     14 NAF          2.0170     0.0000     1.3870 n3         1 CQT      -0.539600
     15 NAI         12.6480    -1.6110     9.0160 na         1 CQT       0.690900
     16 NAJ         12.9730    -1.4140     7.7860 nd         1 CQT      -0.369800
     17 NAK         11.3630    -1.5800     9.1260 nd         1 CQT      -0.700800
     18 NAL         11.9000    -1.2640     7.0870 nc         1 CQT      -0.328000
     19 NAO          6.7600    -1.0680     6.9350 nb         1 CQT      -0.567000
     20 NAU          5.9070    -0.6040     4.2940 ns         1 CQT      -0.175900
     21 OAB         -0.4710     1.1300     0.7390 os         1 CQT      -0.411600
     22 OAH          8.0430    -0.5790     3.6910 o          1 CQT      -0.649100
     23 H1          -0.3610    -0.9100     0.4640 h1         1 CQT       0.012450
     24 H2          -0.3610     0.0600    -1.0200 h1         1 CQT       0.012450
     25 H3          -0.3920     2.0550     2.5790 h1         1 CQT       0.012450
     26 H4          -0.3790     0.2830     2.6150 h1         1 CQT       0.012450
     27 H5           1.8730     2.0760     1.6370 h1         1 CQT       0.018450
     28 H6           1.8590     1.1380     3.1410 h1         1 CQT       0.018450
     29 H7           1.8920    -0.8860    -0.5080 h1         1 CQT       0.018450
     30 H8           1.8920     0.8860    -0.5080 h1         1 CQT       0.018450
     31 H9           5.8190    -1.1710     2.2830 h1         1 CQT       0.026700
     32 H10          5.8780     0.5740     2.5660 h1         1 CQT       0.026700
     33 H11          9.7530    -0.7370     5.5120 ha         1 CQT       0.156000
     34 H12          6.3330    -1.3760     8.9430 h4         1 CQT      -0.015900
     35 H13          8.7050    -1.5540     9.5880 ha         1 CQT       0.128000
     36 H14          3.5320    -1.2460     3.2220 hc         1 CQT       0.026700
     37 H15          3.5910     0.4990     3.5050 hc         1 CQT       0.026700
     38 H16          3.8330    -0.8640     0.7980 h1         1 CQT       0.013200
     39 H17          3.8930     0.8820     1.0800 h1         1 CQT       0.013200
     40 H19         13.2900    -1.7580     9.7690 hn         1 CQT       0.179700
     41 H20          5.2290    -0.7020     5.0250 hn         1 CQT       0.192500
     42 CAW          3.4840    -0.0580     1.4320 c3         1 CQT       0.160800
@<TRIPOS>BOND
     1     1     4 1   
     2     1    21 1   
     3     1    23 1   
     4     1    24 1   
     5     2     3 1   
     6     2    21 1   
     7     2    25 1   
     8     2    26 1   
     9     3    14 1   
    10     3    27 1   
    11     3    28 1   
    12     4    14 1   
    13     4    29 1   
    14     4    30 1   
    15     5    13 1   
    16     5    20 1   
    17     5    31 1   
    18     5    32 1   
    19     6    10 1   
    20     6    17 2   
    21     6    18 1   
    22     7     8 ar  
    23     7    12 1   
    24     7    19 ar  
    25     8    10 ar  
    26     8    33 1   
    27     9    11 ar  
    28     9    19 ar  
    29     9    34 1   
    30    10    11 ar  
    31    11    35 1   
    32    12    20 1   
    33    12    22 2   
    34    13    36 1   
    35    13    37 1   
    36    13    42 1   
    37    14    42 1   
    38    15    16 1   
    39    15    17 1   
    40    15    40 1   
    41    16    18 2   
    42    20    41 1   
    43    38    42 1   
    44    39    42 1   
@<TRIPOS>SUBSTRUCTURE
     1 CQT         1 TEMP              0 ****  ****    0 ROOT
