@<TRIPOS>MOLECULE
molecule
   35    38     1     0     0
SMALL
bcc


@<TRIPOS>ATOM
      1 N3           0.0000     0.0000     0.0000 nu         1 CQU      -0.744300
      2 C7           1.3940     0.0000     0.0000 ca         1 CQU       0.205600
      3 C6          -3.1340     0.1220     0.3250 cc         1 CQU      -0.160200
      4 C13          2.0910     0.0000     1.1990 ca         1 CQU      -0.132000
      5 C21          0.8700    -0.0170    -4.6170 cc         1 CQU       0.361800
      6 C8          -0.7050    -1.9450     2.9170 ca         1 CQU       0.733900
      7 C16          3.4730    -0.0000     1.1970 ca         1 CQU      -0.098000
      8 C19          4.1710     0.0010     0.0010 ca         1 CQU      -0.153000
      9 C22          0.9570    -0.0230    -6.1210 c3         1 CQU      -0.107400
     10 N18          1.9190    -0.0140    -3.7490 na         1 CQU      -0.434700
     11 N20         -0.2260    -0.0090    -3.9070 nd         1 CQU      -0.352000
     12 N17          0.0610    -0.0060    -2.6530 nd         1 CQU      -0.379000
     13 C14          1.3670    -0.0080    -2.4970 cc         1 CQU       0.437000
     14 C12          2.0990    -0.0040    -1.2130 ca         1 CQU      -0.169500
     15 C15          3.4930     0.0020    -1.2000 ca         1 CQU      -0.104000
     16 C1          -0.6920    -0.6310     1.0190 ca         1 CQU       0.766200
     17 C2          -2.0890    -0.5360     1.1070 ca         1 CQU      -0.393400
     18 C5          -2.7460    -1.1950     2.1620 ca         1 CQU       0.515800
     19 N9          -4.0840    -0.9490     2.0220 na         1 CQU      -0.271100
     20 C11         -4.3030    -0.1620     0.9210 cd         1 CQU      -0.116100
     21 N10         -2.0140    -1.8840     3.0370 nb         1 CQU      -0.799000
     22 N4          -0.0490    -1.3420     1.9420 nb         1 CQU      -0.837000
     23 HN3         -0.5000     0.5000    -0.7080 hn         1 CQU       0.492800
     24 H6          -2.9920     0.7240    -0.5650 ha         1 CQU       0.161000
     25 H13          1.5520    -0.0010     2.1390 ha         1 CQU       0.170000
     26 H8          -0.1430    -2.5140     3.6470 h5         1 CQU       0.057100
     27 H16          4.0130    -0.0010     2.1360 ha         1 CQU       0.135000
     28 H19          5.2540     0.0030     0.0090 ha         1 CQU       0.131000
     29 H22         -0.0420    -0.0270    -6.5410 hc         1 CQU       0.058700
     30 H22A         1.4860     0.8610    -6.4560 hc         1 CQU       0.058700
     31 H22B         1.4900    -0.9080    -6.4490 hc         1 CQU       0.058700
     32 HN18         2.8930    -0.0160    -3.9800 hn         1 CQU       0.309700
     33 H15          4.0430     0.0010    -2.1330 ha         1 CQU       0.118000
     34 HN9         -4.7980    -1.2940     2.6320 hn         1 CQU       0.305700
     35 H11         -5.2740     0.1800     0.5820 h4         1 CQU       0.172000
@<TRIPOS>BOND
     1     1     2 1
     2     1    16 1
     3     2     4 ar
     4     2    14 ar
     5     3    17 1
     6     3    20 2
     7     4     7 ar
     8     5     9 1
     9     5    10 1
    10     5    11 2
    11     6    21 ar
    12     6    22 ar
    13     7     8 ar
    14     8    15 ar
    15    10    13 1
    16    11    12 1
    17    12    13 2
    18    13    14 1
    19    14    15 ar
    20    16    17 ar
    21    16    22 ar
    22    17    18 ar
    23    18    19 1
    24    18    21 ar
    25    19    20 1
    26     1    23 1
    27     3    24 1
    28     4    25 1
    29     6    26 1
    30     7    27 1
    31     8    28 1
    32     9    29 1
    33     9    30 1
    34     9    31 1
    35    10    32 1
    36    15    33 1
    37    19    34 1
    38    20    35 1
@<TRIPOS>SUBSTRUCTURE
     1 CQU         1 TEMP              0 ****  ****    0 ROOT
