@<TRIPOS>MOLECULE
CQU
   35    38     1     0     0
SMALL
bcc


@<TRIPOS>ATOM
      1 N3           0.0000     0.0000     0.0000 nu         1 CQU      -0.287300
      2 C7           1.3940     0.0000     0.0000 ca         1 CQU       0.051600
      3 C6          -3.1340     0.1220     0.3250 cc         1 CQU      -0.112200
      4 C13          2.0910     0.0000     1.1990 ca         1 CQU      -0.116000
      5 C21          0.8700    -0.0170    -4.6170 cc         1 CQU       0.156800
      6 C8          -0.7050    -1.9450     2.9170 ca         1 CQU       0.683900
      7 C16          3.4730    -0.0000     1.1970 ca         1 CQU      -0.066000
      8 C19          4.1710     0.0010     0.0010 ca         1 CQU      -0.124000
      9 C22          0.9570    -0.0230    -6.1210 c3         1 CQU       0.014600
     10 N18          1.9190    -0.0140    -3.7490 na         1 CQU       0.104300
     11 N20         -0.2260    -0.0090    -3.9070 nd         1 CQU      -0.318000
     12 N17          0.0610    -0.0060    -2.6530 nd         1 CQU      -0.355000
     13 C14          1.3670    -0.0080    -2.4970 cc         1 CQU       0.249000
     14 C12          2.0990    -0.0040    -1.2130 ca         1 CQU      -0.164500
     15 C15          3.4930     0.0020    -1.2000 ca         1 CQU      -0.088000
     16 C1          -0.6920    -0.6310     1.0190 ca         1 CQU       0.585200
     17 C2          -2.0890    -0.5360     1.1070 ca         1 CQU      -0.402400
     18 C5          -2.7460    -1.1950     2.1620 ca         1 CQU       0.287800
     19 N9          -4.0840    -0.9490     2.0220 na         1 CQU       0.275900
     20 C11         -4.3030    -0.1620     0.9210 cd         1 CQU      -0.291100
     21 N10         -2.0140    -1.8840     3.0370 nb         1 CQU      -0.686000
     22 N4          -0.0490    -1.3420     1.9420 nb         1 CQU      -0.746000
     23 HN3         -0.5000     0.5000    -0.7080 hn         1 CQU       0.332800
     24 H6          -2.9920     0.7240    -0.5650 ha         1 CQU       0.135000
     25 H13          1.5520    -0.0010     2.1390 ha         1 CQU       0.146000
     26 H8          -0.1430    -2.5140     3.6470 h5         1 CQU      -0.007900
     27 H16          4.0130    -0.0010     2.1360 ha         1 CQU       0.103000
     28 H19          5.2540     0.0030     0.0090 ha         1 CQU       0.104000
     29 H22         -0.0420    -0.0270    -6.5410 hc         1 CQU       0.014700
     30 H22A         1.4860     0.8610    -6.4560 hc         1 CQU       0.014700
     31 H22B         1.4900    -0.9080    -6.4490 hc         1 CQU       0.014700
     32 HN18         2.8930    -0.0160    -3.9800 hn         1 CQU       0.140700
     33 H15          4.0430     0.0010    -2.1330 ha         1 CQU       0.089000
     34 HN9         -4.7980    -1.2940     2.6320 hn         1 CQU       0.117700
     35 H11         -5.2740     0.1800     0.5820 h4         1 CQU       0.144000
@<TRIPOS>BOND
     1     1     2 1   
     2     1    16 1   
     3     1    23 1   
     4     2     4 ar  
     5     2    14 ar  
     6     3    17 1   
     7     3    20 2   
     8     3    24 1   
     9     4     7 ar  
    10     4    25 1   
    11     5     9 1   
    12     5    10 1   
    13     5    11 2   
    14     6    21 ar  
    15     6    22 ar  
    16     6    26 1   
    17     7     8 ar  
    18     7    27 1   
    19     8    15 ar  
    20     8    28 1   
    21     9    29 1   
    22     9    30 1   
    23     9    31 1   
    24    10    13 1   
    25    10    32 1   
    26    11    12 1   
    27    12    13 2   
    28    13    14 1   
    29    14    15 ar  
    30    15    33 1   
    31    16    17 ar  
    32    16    22 ar  
    33    17    18 ar  
    34    18    19 1   
    35    18    21 ar  
    36    19    20 1   
    37    19    34 1   
    38    20    35 1   
@<TRIPOS>SUBSTRUCTURE
     1 CQU         1 TEMP              0 ****  ****    0 ROOT
