@<TRIPOS>MOLECULE
molecule
   25    25     1     0     0
SMALL
bcc


@<TRIPOS>ATOM
      1 C9           0.0000     0.0000     0.0000 c          1 CQV       0.779100
      2 C8           3.6550     0.0000     0.0000 ca         1 CQV       0.395200
      3 C7           1.3990    -0.0040     0.4850 ca         1 CQV       0.410800
      4 C4           3.9840     0.0000     1.3450 ca         1 CQV      -0.248600
      5 C5           2.9710    -0.0010     2.2920 ca         1 CQV      -0.123000
      6 C6           1.6550    -0.0040     1.8540 ca         1 CQV      -0.230300
      7 C3           5.4270     0.0020     1.7760 c3         1 CQV      -0.023100
      8 C2           5.9140     1.4450     1.9210 c3         1 CQV      -0.077400
      9 C1           7.3810     1.4470     2.3590 c3         1 CQV      -0.086400
     10 O           -0.9180    -0.0020     0.7950 o          1 CQV      -0.820300
     11 O1          -0.2550     0.0100    -1.3230 o          1 CQV      -0.820300
     12 N            2.3980     0.0030    -0.3890 nb         1 CQV      -0.643000
     13 C            7.8670     2.8890     2.5050 c3         1 CQV      -0.091100
     14 H9           3.2020    -0.0010     3.3510 ha         1 CQV       0.111000
     15 H10          0.8390    -0.0050     2.5660 ha         1 CQV       0.153000
     16 H7           5.5210    -0.5090     2.7270 hc         1 CQV       0.035200
     17 H8           6.0270    -0.5090     1.0320 hc         1 CQV       0.035200
     18 H6           5.8200     1.9560     0.9710 hc         1 CQV       0.046200
     19 H5           5.3150     1.9560     2.6660 hc         1 CQV       0.046200
     20 H4           7.4750     0.9360     3.3090 hc         1 CQV       0.034200
     21 H3           7.9800     0.9370     1.6140 hc         1 CQV       0.034200
     22 H2           7.7720     3.4010     1.5540 hc         1 CQV       0.028367
     23 H1           8.9050     2.8910     2.8130 hc         1 CQV       0.028367
     24 H            7.2680     3.3990     3.2500 hc         1 CQV       0.028367
     25 H11          4.4430     0.0030    -0.7430 h4         1 CQV      -0.002900
@<TRIPOS>BOND
     1    10     1 1
     2     6     5 ar
     3     6     3 ar
     4     5     4 ar
     5     1     3 1
     6     1    11 1
     7     3    12 ar
     8     8     9 1
     9     8     7 1
    10     9    13 1
    11     4     7 1
    12     4     2 ar
    13    12     2 ar
    14     2    25 1
    15     5    14 1
    16     6    15 1
    17     7    16 1
    18     7    17 1
    19     8    18 1
    20     8    19 1
    21     9    20 1
    22     9    21 1
    23    13    22 1
    24    13    23 1
    25    13    24 1
@<TRIPOS>SUBSTRUCTURE
     1 CQV         1 TEMP              0 ****  ****    0 ROOT
