@<TRIPOS>MOLECULE
CQW
   30    33     1     0     0
SMALL
bcc


@<TRIPOS>ATOM
      1 C7           0.0000     0.0000     0.0000 ca         1 CQW       0.259800
      2 C9           0.0360    -0.0100    -2.3010 ca         1 CQW       0.652900
      3 C13          1.4070     0.0000     0.0000 ca         1 CQW      -0.321400
      4 C21          6.1360    -0.0480    -1.9260 cc         1 CQW      -0.437900
      5 N5          -0.4040     0.0010     1.3060 na         1 CQW       0.278900
      6 C18          5.4620    -1.3720    -1.6730 c3         1 CQW       0.094900
      7 C2           1.8160     0.0000     1.4050 cc         1 CQW      -0.055800
      8 C3           0.6890     0.0000     2.1370 cd         1 CQW      -0.274100
      9 N8          -0.6370    -0.0050    -1.1710 nb         1 CQW      -0.632000
     10 C12          2.0810    -0.0000    -1.2310 ca         1 CQW       0.590200
     11 N11          1.3560    -0.0010    -2.3460 nb         1 CQW      -0.690000
     12 N14          3.4630    -0.0000    -1.2830 nh         1 CQW      -0.518300
     13 C28          3.9670     1.2310    -1.9140 c3         1 CQW       0.155500
     14 C27          5.4670     1.1220    -2.0360 cd         1 CQW       0.287600
     15 N26          6.3600     2.0870    -2.2590 nd         1 CQW      -0.595000
     16 C24          7.5580     1.5630    -2.2900 cc         1 CQW       0.186400
     17 N22          7.4560     0.2290    -2.0900 na         1 CQW       0.277100
     18 C15          3.9640    -1.2000    -1.9670 c3         1 CQW       0.158800
     19 H9          -0.5150    -0.0100    -3.2340 h5         1 CQW      -0.001900
     20 HN5         -1.3570     0.0010     1.6120 hn         1 CQW       0.122700
     21 H18          5.6000    -1.6610    -0.6390 hc         1 CQW       0.016200
     22 H18A         5.8790    -2.1250    -2.3300 hc         1 CQW       0.016200
     23 H3           0.6490    -0.0000     3.2200 h4         1 CQW       0.153000
     24 H28          3.7380     2.0670    -1.2640 h1         1 CQW       0.033200
     25 H28A         3.5480     1.3000    -2.9110 h1         1 CQW       0.033200
     26 H24          8.4800     2.1080    -2.4500 h5         1 CQW       0.022100
     27 HN22         8.2100    -0.4290    -2.0630 hn         1 CQW       0.115700
     28 H15          3.8170    -1.0930    -3.0350 h1         1 CQW       0.020700
     29 H15A         3.4260    -2.0690    -1.6090 h1         1 CQW       0.020700
     30 Cl1          3.4430     0.0000     2.0080 cl         1 CQW       0.027600
@<TRIPOS>BOND
     1     1     3 ar  
     2     1     5 1   
     3     1     9 ar  
     4     2     9 ar  
     5     2    11 ar  
     6     2    19 1   
     7     3     7 1   
     8     3    10 ar  
     9     4     6 1   
    10     4    14 2   
    11     4    17 1   
    12     5     8 1   
    13     5    20 1   
    14     6    18 1   
    15     6    21 1   
    16     6    22 1   
    17     7     8 2   
    18     7    30 1   
    19     8    23 1   
    20    10    11 ar  
    21    10    12 1   
    22    12    13 1   
    23    12    18 1   
    24    13    14 1   
    25    13    24 1   
    26    13    25 1   
    27    14    15 1   
    28    15    16 2   
    29    16    17 1   
    30    16    26 1   
    31    17    27 1   
    32    18    28 1   
    33    18    29 1   
@<TRIPOS>SUBSTRUCTURE
     1 CQW         1 TEMP              0 ****  ****    0 ROOT
