@<TRIPOS>MOLECULE
molecule
   56    59     1     0     0
SMALL
bcc


@<TRIPOS>ATOM
      1 C01          0.0000     0.0000     0.0000 c3         1 CQY      -0.092100
      2 C02          1.5300     0.0000     0.0000 c3         1 CQY       0.133400
      3 C04          3.3520     0.0010     1.5250 cc         1 CQY       0.183100
      4 C05          3.9530     0.0000     2.7590 cd         1 CQY      -0.179700
      5 C07          5.5430    -0.0100     0.8500 cd         1 CQY      -0.073100
      6 C08          4.2580    -0.0050     0.4840 cc         1 CQY      -0.233000
      7 C09          3.2750     0.0050     4.0050 c          1 CQY       0.722700
      8 C12          2.8700    -0.9500     6.2260 c3         1 CQY       0.103000
      9 C13          2.4690    -2.4080     6.4740 c3         1 CQY       0.145800
     10 C15          4.2710    -3.2260     5.0730 c3         1 CQY       0.145800
     11 C16          4.7470    -1.8020     4.7680 c3         1 CQY       0.103000
     12 C17          3.3650    -4.5700     6.7910 ca         1 CQY       0.152600
     13 C18          2.0680    -4.9090     7.1580 ca         1 CQY      -0.208000
     14 C19          1.7710    -6.2070     7.5290 ca         1 CQY      -0.038000
     15 C20          2.7620    -7.1700     7.5380 ca         1 CQY      -0.160200
     16 C21          4.0600    -6.8370     7.1740 ca         1 CQY       0.137600
     17 C22          4.3620    -5.5350     6.7990 ca         1 CQY      -0.202000
     18 C24          6.7370    -7.1490     7.9860 c3         1 CQY       0.125800
     19 C25          8.0750    -7.5880     7.3610 c3         1 CQY      -0.089400
     20 C26          7.6870    -8.4740     6.1560 c3         1 CQY      -0.089400
     21 C27          6.2370    -8.0210     5.8460 c3         1 CQY       0.125800
     22 N11          3.6180    -0.8810     4.9610 n          1 CQY      -0.497800
     23 N14          3.6630    -3.2600     6.4100 nh         1 CQY      -0.596000
     24 N23          5.6600    -7.7810     7.1930 nh         1 CQY      -0.522000
     25 N28          2.4380    -8.5580     7.9380 no         1 CQY       0.296200
     26 O03          2.0060     0.0000     1.3480 os         1 CQY      -0.291900
     27 O10          2.3840     0.8090     4.2090 o          1 CQY      -0.584100
     28 O29          3.3280    -9.3840     8.0410 o          1 CQY      -0.202500
     29 O30          1.2840    -8.8740     8.1640 o          1 CQY      -0.202500
     30 S06          5.6990    -0.0070     2.5480 ss         1 CQY      -0.065800
     31 H1          -0.3610    -0.8840     0.5120 hc         1 CQY       0.051033
     32 H2          -0.3610    -0.0010    -1.0210 hc         1 CQY       0.051033
     33 H3          -0.3610     0.8850     0.5100 hc         1 CQY       0.051033
     34 H4           1.8910    -0.8850    -0.5110 h1         1 CQY       0.034200
     35 H5           1.8910     0.8850    -0.5110 h1         1 CQY       0.034200
     36 H6           6.3770    -0.0140     0.1580 h4         1 CQY       0.175000
     37 H7           3.9500    -0.0060    -0.5550 ha         1 CQY       0.156000
     38 H8           1.9810    -0.3350     6.1570 h1         1 CQY       0.068950
     39 H9           3.4980    -0.6030     7.0380 h1         1 CQY       0.068950
     40 H10          1.7620    -2.7200     5.7150 h1         1 CQY       0.054200
     41 H11          2.0160    -2.4950     7.4540 h1         1 CQY       0.054200
     42 H12          5.1160    -3.9020     5.0440 h1         1 CQY       0.054200
     43 H13          3.5360    -3.5250     4.3350 h1         1 CQY       0.054200
     44 H14          5.0910    -1.7450     3.7430 h1         1 CQY       0.068950
     45 H15          5.5510    -1.5360     5.4430 h1         1 CQY       0.068950
     46 H16          1.2890    -4.1560     7.1520 ha         1 CQY       0.154000
     47 H17          0.7600    -6.4690     7.8140 ha         1 CQY       0.171000
     48 H18          5.3740    -5.2730     6.5140 ha         1 CQY       0.152000
     49 H20          6.6450    -6.0710     7.9390 h1         1 CQY       0.052450
     50 H21          8.6330    -6.7220     7.0250 hc         1 CQY       0.054450
     51 H22          8.6530    -8.1610     8.0770 hc         1 CQY       0.054450
     52 H23          7.7080    -9.5220     6.4290 hc         1 CQY       0.054450
     53 H24          8.3370    -8.2770     5.3120 hc         1 CQY       0.054450
     54 H25          6.2400    -7.1060     5.2650 h1         1 CQY       0.052450
     55 H26          5.6940    -8.8060     5.3330 h1         1 CQY       0.052450
     56 H19          6.6830    -7.4860     9.0140 h1         1 CQY       0.052450
@<TRIPOS>BOND
     1    27     7 2
     2     1     2 1
     3    26     2 1
     4    26     3 1
     5     9     8 1
     6     9    23 1
     7     7     4 1
     8     7    22 1
     9     8    22 1
    10     3     4 2
    11     3     6 1
    12     4    30 1
    13    22    11 1
    14    23    10 1
    15    23    12 1
    16     6     5 2
    17    10    11 1
    18    30     5 1
    19    12    17 ar
    20    12    13 ar
    21    18    19 1
    22    18    24 1
    23    17    16 ar
    24    13    14 ar
    25    16    24 1
    26    16    15 ar
    27    14    15 ar
    28    19    20 1
    29    24    21 1
    30    15    25 1
    31    28    25 1
    32    25    29 1
    33    20    21 1
    34     1    31 1
    35     1    32 1
    36     1    33 1
    37     2    34 1
    38     2    35 1
    39     5    36 1
    40     6    37 1
    41     8    38 1
    42     8    39 1
    43     9    40 1
    44     9    41 1
    45    10    42 1
    46    10    43 1
    47    11    44 1
    48    11    45 1
    49    13    46 1
    50    14    47 1
    51    17    48 1
    52    18    56 1
    53    18    49 1
    54    19    50 1
    55    19    51 1
    56    20    52 1
    57    20    53 1
    58    21    54 1
    59    21    55 1
@<TRIPOS>SUBSTRUCTURE
     1 CQY         1 TEMP              0 ****  ****    0 ROOT
