@<TRIPOS>MOLECULE
CQZ
   25    25     1     0     0
SMALL
bcc


@<TRIPOS>ATOM
      1 CAA          0.0000     0.0000     0.0000 ca         1 CQZ      -0.277300
      2 CAB          1.3910     0.0000     0.0000 ca         1 CQZ       0.483200
      3 CAC         -0.6750     0.0050     1.2220 ca         1 CQZ      -0.032600
      4 CAE          0.0850     0.0060     2.3970 ca         1 CQZ      -0.239300
      5 CAF          1.4620    -0.0000     2.3090 ca         1 CQZ       0.394200
      6 CAG         -2.1550     0.0110     1.2730 c          1 CQZ       0.973200
      7 CAK          1.3370     0.0000    -2.4730 c3         1 CQZ       0.174800
      8 CAL          2.3240     0.0010    -3.6420 c3         1 CQZ      -0.049400
      9 CAM          1.5490    -0.0000    -4.9620 c3         1 CQZ       0.227400
     10 NAD          2.0670     0.0000     1.1370 nb         1 CQZ      -0.684000
     11 NAJ          2.0780     0.0000    -1.2090 nu         1 CQZ      -0.554900
     12 OAH         -2.7870     0.0170     2.4610 o          1 CQZ      -0.882300
     13 OAI         -2.7980     0.0120     0.2430 o          1 CQZ      -0.882300
     14 OAN          2.4710     0.0000    -6.0550 oh         1 CQZ      -0.601800
     15 H1          -0.5510    -0.0000    -0.9330 ha         1 CQZ       0.135000
     16 H2          -0.4020     0.0070     3.3650 ha         1 CQZ       0.135000
     17 H3           2.0540    -0.0000     3.2160 h4         1 CQZ      -0.043900
     18 H4           0.7140    -0.8840    -2.5260 h1         1 CQZ       0.016700
     19 H5           0.7140     0.8850    -2.5260 h1         1 CQZ       0.016700
     20 H6           2.9470    -0.8840    -3.5880 hc         1 CQZ       0.021700
     21 H7           2.9460     0.8850    -3.5890 hc         1 CQZ       0.021700
     22 H8           0.9270    -0.8850    -5.0150 h1         1 CQZ      -0.012300
     23 H9           0.9260     0.8840    -5.0160 h1         1 CQZ      -0.012300
     24 H10          3.0790    -0.0000    -1.2150 hn         1 CQZ       0.286800
     25 H12          1.9950    -0.0000    -6.8680 ho         1 CQZ       0.384000
@<TRIPOS>BOND
     1     1     2 ar  
     2     1     3 ar  
     3     1    15 1   
     4     2    10 ar  
     5     2    11 1   
     6     3     4 ar  
     7     3     6 1   
     8     4     5 ar  
     9     4    16 1   
    10     5    10 ar  
    11     5    17 1   
    12     6    12 1   
    13     6    13 1   
    14     7     8 1   
    15     7    11 1   
    16     7    18 1   
    17     7    19 1   
    18     8     9 1   
    19     8    20 1   
    20     8    21 1   
    21     9    14 1   
    22     9    22 1   
    23     9    23 1   
    24    11    24 1   
    25    14    25 1   
@<TRIPOS>SUBSTRUCTURE
     1 CQZ         1 TEMP              0 ****  ****    0 ROOT
