@<TRIPOS>MOLECULE
molecule
   47    50     1     0     0
SMALL
bcc


@<TRIPOS>ATOM
      1 C1           0.0000     0.0000     0.0000 ca         1 CR3      -0.079900
      2 C2           1.4010     0.0000     0.0000 ca         1 CR3      -0.077000
      3 C3           2.0960     0.0000     1.1730 ca         1 CR3      -0.140000
      4 C4           1.4190     0.0010     2.3910 ca         1 CR3       0.078000
      5 C5           0.0100     0.0010     2.4050 ca         1 CR3      -0.036000
      6 C6          -0.6990     0.0050     1.2030 ca         1 CR3      -0.221000
      7 C7          -0.7380    -0.0000    -1.2810 ce         1 CR3       0.086800
      8 N1          -2.0710    -0.0000    -1.2830 nz         1 CR3      -0.673600
      9 N2          -0.0710    -0.0000    -2.4340 nv         1 CR3      -0.521100
     10 N3           1.8430     0.0010     3.7000 na         1 CR3      -0.168600
     11 CN4         -0.3870     0.0010     3.8130 cc         1 CR3      -0.236000
     12 C8           0.7550     0.0010     4.5430 cc         1 CR3       0.047900
     13 C1'          0.8230     0.0010     6.0200 cd         1 CR3      -0.044000
     14 C2'         -0.0700     0.7770     6.7620 cd         1 CR3      -0.153000
     15 C3'         -0.0050     0.7750     8.1400 cc         1 CR3      -0.026000
     16 C4'          0.9440     0.0060     8.7930 cc         1 CR3      -0.250000
     17 C5'          1.8350    -0.7690     8.0680 cd         1 CR3       0.137100
     18 O5'          2.7640    -1.5230     8.7160 os         1 CR3      -0.228900
     19 C6'          1.7760    -0.7810     6.6800 c          1 CR3       0.425100
     20 O6'          2.6490    -1.5400     5.9660 o          1 CR3      -0.533100
     21 C1B          3.0830    -2.6250    10.8600 c3         1 CR3      -0.096400
     22 C2B          2.4710    -1.4290    10.1120 c3         1 CR3       0.093100
     23 C3B          3.1190    -0.1600    10.7040 c3         1 CR3      -0.096400
     24 C4B          3.5840    -0.5950    12.1150 c3         1 CR3      -0.082400
     25 C5B          4.0820    -2.0430    11.8810 c3         1 CR3      -0.082400
     26 HC2          2.1490     0.0060    -0.7830 ha         1 CR3       0.151000
     27 HC3          3.1740     0.0200     1.0670 ha         1 CR3       0.155000
     28 HC6         -1.7640     0.0260     1.3980 ha         1 CR3       0.131000
     29 HH11        -2.4030    -0.0230    -2.2260 hn         1 CR3       0.440800
     30 HH12        -2.4050    -0.8060    -0.7920 hn         1 CR3       0.440800
     31 HH21        -0.5710    -0.0000    -3.3010 hn         1 CR3       0.300700
     32 HH22         0.9300    -0.0000    -2.4340 hn         1 CR3       0.300700
     33 HN3          2.7990     0.0010     3.9940 hn         1 CR3       0.332700
     34 HCN4        -1.4000     0.0010     4.1980 ha         1 CR3       0.171000
     35 HC2'        -0.8140     1.3810     6.2560 ha         1 CR3       0.151000
     36 HC3'        -0.6980     1.3780     8.7140 ha         1 CR3       0.153000
     37 HC4'         0.9880     0.0100     9.8760 ha         1 CR3       0.174000
     38 H1A          2.3060    -3.1760    11.3760 hc         1 CR3       0.061950
     39 H1B          3.6020    -3.2710    10.1620 hc         1 CR3       0.061950
     40 H2A          1.4000    -1.4040    10.2710 h1         1 CR3       0.065700
     41 H3A          3.9680     0.1450    10.1050 hc         1 CR3       0.061950
     42 H3B          2.3900     0.6380    10.7760 hc         1 CR3       0.061950
     43 H4A          4.3930     0.0360    12.4630 hc         1 CR3       0.055950
     44 H4B          2.7540    -0.5850    12.8110 hc         1 CR3       0.055950
     45 H5A          4.0510    -2.6070    12.8040 hc         1 CR3       0.055950
     46 H5B          5.0840    -2.0350    11.4670 hc         1 CR3       0.055950
     47 H13         -2.4050     0.8280    -0.8310 hn         1 CR3       0.440800
@<TRIPOS>BOND
     1     1     2 ar
     2     1     6 ar
     3     1     7 1
     4     2     3 ar
     5     2    26 1
     6     3     4 ar
     7     3    27 1
     8     4     5 ar
     9     4    10 2
    10     5     6 ar
    11     5    11 2
    12     6    28 1
    13     7     8 1
    14     7     9 2
    15     8    29 1
    16     8    30 1
    17     9    31 1
    18     9    32 1
    19    10    12 1
    20    10    33 1
    21    11    12 1
    22    11    34 1
    23    12    13 2
    24    13    14 1
    25    13    19 1
    26    14    15 2
    27    14    35 1
    28    15    16 1
    29    15    36 1
    30    16    17 2
    31    16    37 1
    32    17    18 1
    33    17    19 1
    34    18    22 1
    35    19    20 2
    36    21    22 1
    37    21    25 1
    38    21    38 1
    39    21    39 1
    40    22    23 1
    41    22    40 1
    42    23    24 1
    43    23    41 1
    44    23    42 1
    45    24    25 1
    46    24    43 1
    47    24    44 1
    48    25    45 1
    49    25    46 1
    50    47     8 1
@<TRIPOS>SUBSTRUCTURE
     1 CR3         1 TEMP              0 ****  ****    0 ROOT
