@<TRIPOS>MOLECULE
CR3
   46    49     1     0     0
SMALL
bcc


@<TRIPOS>ATOM
      1 C1          0.0280   -0.0910   -0.0180 ca        1 CR3     -0.301900
      2 C2          1.2860   -0.7300    0.0810 ca        1 CR3     -0.109000
      3 C3          1.8860   -0.9540    1.3080 ca        1 CR3     -0.150000
      4 C4          1.2240   -0.5220    2.4660 ca        1 CR3      0.053000
      5 C5         -0.0850    0.1480    2.3780 ca        1 CR3     -0.033000
      6 C6         -0.6570    0.3450    1.1370 ca        1 CR3     -0.096000
      7 C7         -0.5750    0.1180   -1.3310 ce        1 CR3      0.528400
      8 N1         -1.9280    0.0410   -1.4680 nh        1 CR3     -0.506600
      9 N2          0.2220    0.3860   -2.4040 nh        1 CR3     -0.490700
     10 N3          1.5710   -0.5970    3.7920 na        1 CR3     -0.208600
     11 CN4        -0.4720    0.4570    3.7140 cc        1 CR3     -0.330000
     12 C8          0.5540   -0.0050    4.5850 cc        1 CR3      0.166900
     13 C1'         0.6260    0.0760    6.0000 cd        1 CR3     -0.339200
     14 C2'        -0.4530    0.6800    6.7000 cd        1 CR3     -0.037000
     15 C3'        -0.4610    0.8040    8.0610 cc        1 CR3     -0.238000
     16 C4'         0.6400    0.3260    8.8220 cc        1 CR3     -0.132000
     17 C5'         1.6960   -0.2700    8.1930 cd        1 CR3     -0.037100
     18 O5'         2.8370   -0.7030    8.8540 os        1 CR3     -0.311900
     19 C6'         1.7610   -0.4450    6.7330 c         1 CR3      0.590500
     20 O6'         2.7470   -1.0140    6.1960 o         1 CR3     -0.690100
     21 C1B         3.6830   -2.3610   10.3370 c3        1 CR3     -0.095900
     22 C2B         2.6140   -1.2780   10.1480 c3        1 CR3      0.139100
     23 C3B         2.8250   -0.2330   11.2510 c3        1 CR3     -0.095900
     24 C4B         3.9280   -0.7450   12.1650 c3        1 CR3     -0.076400
     25 C5B         4.2820   -2.1570   11.7190 c3        1 CR3     -0.076400
     26 HC2         1.7950   -1.1010   -0.8210 ha        1 CR3      0.115000
     27 HC3         2.8580   -1.4650    1.3720 ha        1 CR3      0.148000
     28 HC6        -1.6160    0.8780    1.0690 ha        1 CR3      0.124000
     29 HH11       -2.3990    0.2510   -2.3150 hn        1 CR3      0.309450
     30 HH12       -2.4710   -0.1770   -0.6610 hn        1 CR3      0.309450
     31 HH21        1.2030    0.4610   -2.2550 hn        1 CR3      0.309450
     32 HH22       -0.1270    0.4720   -3.3290 hn        1 CR3      0.309450
     33 HN3         2.4040   -0.9890    4.1840 hn        1 CR3      0.350700
     34 HCN4       -1.3830    0.9570    4.0160 ha        1 CR3      0.157000
     35 HC2'       -1.3080    1.0560    6.1170 ha        1 CR3      0.105000
     36 HC3'       -1.3030    1.2710    8.5860 ha        1 CR3      0.115000
     37 HC4'        0.6240    0.4410    9.9160 ha        1 CR3      0.118000
     38 H1A         3.2300   -3.3760   10.2350 hc        1 CR3      0.053700
     39 H1B         4.4650   -2.2540    9.5420 hc        1 CR3      0.053700
     40 H2A         1.5820   -1.7160   10.2060 h1        1 CR3      0.047700
     41 H3A         3.1080    0.7480   10.7950 hc        1 CR3      0.053700
     42 H3B         1.8760   -0.0820   11.8230 hc        1 CR3      0.053700
     43 H4A         4.8270   -0.0820   12.0920 hc        1 CR3      0.035700
     44 H4B         3.5970   -0.7390   13.2330 hc        1 CR3      0.035700
     45 H5A         5.3900   -2.3030   11.6970 hc        1 CR3      0.035700
     46 H5B         3.8610   -2.9060   12.4380 hc        1 CR3      0.035700
@<TRIPOS>BOND
     1    1    2 ar  
     2    1    6 ar  
     3    1    7 1   
     4    2    3 ar  
     5    2   26 1   
     6    3    4 ar  
     7    3   27 1   
     8    4    5 ar  
     9    4   10 2   
    10    5    6 ar  
    11    5   11 2   
    12    6   28 1   
    13    7    8 2   
    14    7    9 1   
    15    8   29 1   
    16    8   30 1   
    17    9   31 1   
    18    9   32 1   
    19   10   12 1   
    20   10   33 1   
    21   11   12 1   
    22   11   34 1   
    23   12   13 2   
    24   13   14 1   
    25   13   19 1   
    26   14   15 2   
    27   14   35 1   
    28   15   16 1   
    29   15   36 1   
    30   16   17 2   
    31   16   37 1   
    32   17   18 1   
    33   17   19 1   
    34   18   22 1   
    35   19   20 2   
    36   21   22 1   
    37   21   25 1   
    38   21   38 1   
    39   21   39 1   
    40   22   23 1   
    41   22   40 1   
    42   23   24 1   
    43   23   41 1   
    44   23   42 1   
    45   24   25 1   
    46   24   43 1   
    47   24   44 1   
    48   25   45 1   
    49   25   46 1   
@<TRIPOS>SUBSTRUCTURE
     1 CR3         1 TEMP              0 ****  ****    0 ROOT
