@<TRIPOS>MOLECULE
molecule
   32    34     1     0     0
SMALL
bcc


@<TRIPOS>ATOM
      1 C1           0.0000     0.0000     0.0000 ca         1 CR4      -0.119900
      2 C2           1.4000     0.0000     0.0000 ca         1 CR4      -0.055000
      3 C3           2.0930     0.0000     1.1770 ca         1 CR4      -0.117000
      4 C4           1.4130    -0.0020     2.3880 ca         1 CR4       0.037000
      5 C5           0.0040    -0.0020     2.4080 ca         1 CR4       0.025000
      6 C6          -0.6990     0.0040     1.2020 ca         1 CR4      -0.195000
      7 C7          -0.7370     0.0010    -1.2810 ce         1 CR4       0.139800
      8 N1          -2.0700     0.0010    -1.2820 nz         1 CR4      -0.689600
      9 N2          -0.0690     0.0030    -2.4330 nv         1 CR4      -0.508100
     10 N3           1.8150    -0.0040     3.7070 na         1 CR4      -0.177600
     11 N4          -0.3790    -0.0050     3.7080 nc         1 CR4      -0.335600
     12 C8           0.6820    -0.0060     4.4780 cc         1 CR4       0.239500
     13 C1'          0.6600    -0.0080     5.9550 cd         1 CR4      -0.051000
     14 C2'         -0.2770     0.7610     6.6450 cd         1 CR4      -0.103000
     15 C3'         -0.2940     0.7550     8.0240 cc         1 CR4      -0.080000
     16 C4'          0.6180    -0.0140     8.7270 cc         1 CR4      -0.099000
     17 C5'          1.5510    -0.7800     8.0570 cd         1 CR4      -0.144000
     18 C6'          1.5770    -0.7880     6.6710 c          1 CR4       0.435100
     19 O6'          2.4940    -1.5400     6.0110 o          1 CR4      -0.581100
     20 HC2          1.9370    -0.0030    -0.9410 ha         1 CR4       0.141000
     21 HC3          3.1760     0.0000     1.1660 ha         1 CR4       0.162000
     22 HC6         -1.7830     0.0040     1.2030 ha         1 CR4       0.125000
     23 HH11        -2.4040     0.8190    -0.8130 hn         1 CR4       0.451800
     24 HH12        -2.4020    -0.0010    -2.2270 hn         1 CR4       0.451800
     25 HH21        -0.5690     0.0040    -3.3010 hn         1 CR4       0.307700
     26 HH22         0.9310     0.0040    -2.4320 hn         1 CR4       0.307700
     27 HN3          2.7590    -0.0050     4.0390 hn         1 CR4       0.345700
     28 HC2'        -0.9920     1.3640     6.0970 ha         1 CR4       0.158000
     29 HC3'        -1.0220     1.3530     8.5580 ha         1 CR4       0.153000
     30 HC4'         0.6010    -0.0120     9.8110 ha         1 CR4       0.154000
     31 HC5'         2.2600    -1.3790     8.6150 ha         1 CR4       0.170000
     32 H13         -2.4040    -0.8190    -0.8150 hn         1 CR4       0.451800
@<TRIPOS>BOND
     1     1     2 ar
     2     1     6 ar
     3     1     7 1
     4     2     3 ar
     5     2    20 1
     6     3     4 ar
     7     3    21 1
     8     4     5 ar
     9     4    10 2
    10     5     6 ar
    11     5    11 2
    12     6    22 1
    13     7     8 1
    14     7     9 2
    15     8    23 1
    16     8    24 1
    17     9    25 1
    18     9    26 1
    19    10    12 1
    20    10    27 1
    21    11    12 1
    22    12    13 2
    23    13    14 1
    24    13    18 1
    25    14    15 2
    26    14    28 1
    27    15    16 1
    28    15    29 1
    29    16    17 2
    30    16    30 1
    31    17    18 1
    32    17    31 1
    33    18    19 2
    34    32     8 1
@<TRIPOS>SUBSTRUCTURE
     1 CR4         1 TEMP              0 ****  ****    0 ROOT
