@<TRIPOS>MOLECULE
CR4
   31    33     1     0     0
SMALL
bcc


@<TRIPOS>ATOM
      1 C1         -0.0100    0.0250   -0.0190 ca        1 CR4     -0.297900
      2 C2          1.3260   -0.4300   -0.0130 ca        1 CR4     -0.100000
      3 C3          2.0160   -0.6320    1.1720 ca        1 CR4     -0.153000
      4 C4          1.3570   -0.3640    2.3760 ca        1 CR4      0.036000
      5 C5         -0.0450    0.1170    2.3880 ca        1 CR4     -0.021000
      6 C6         -0.7020    0.3000    1.1810 ca        1 CR4     -0.101000
      7 C7         -0.7060    0.2090   -1.2930 ce        1 CR4      0.528400
      8 N1         -2.0330   -0.0790   -1.3770 nh        1 CR4     -0.503100
      9 N2         -0.0150    0.6610   -2.3770 nh        1 CR4     -0.487200
     10 N3          1.7330   -0.4450    3.6920 na        1 CR4     -0.244600
     11 N4         -0.4640    0.3080    3.6990 nc        1 CR4     -0.380600
     12 C8          0.6140   -0.0340    4.4940 cc        1 CR4      0.315500
     13 C1'         0.6760   -0.0070    5.9160 cd        1 CR4     -0.331200
     14 C2'        -0.4700    0.4160    6.6440 cd        1 CR4     -0.007000
     15 C3'        -0.4800    0.4650    8.0110 cc        1 CR4     -0.267000
     16 C4'         0.6820    0.0850    8.7380 cc        1 CR4     -0.053000
     17 C5'         1.8040   -0.3260    8.0910 cd        1 CR4     -0.282200
     18 C6'         1.8730   -0.3980    6.6360 c         1 CR4      0.581500
     19 O6'         2.9380   -0.7860    6.0770 o         1 CR4     -0.719100
     20 HC2         1.8370   -0.6730   -0.9570 ha        1 CR4      0.117000
     21 HC3         3.0520   -1.0000    1.1630 ha        1 CR4      0.150000
     22 HC6        -1.7280    0.6950    1.1820 ha        1 CR4      0.138000
     23 HH11       -2.4930   -0.4190   -0.5610 hn        1 CR4      0.310950
     24 HH12       -2.5760    0.1010   -2.1880 hn        1 CR4      0.310950
     25 HH21        0.9480    0.8850   -2.2620 hn        1 CR4      0.310950
     26 HH22       -0.4200    0.7510   -3.2780 hn        1 CR4      0.310950
     27 HN3         2.6080   -0.7330    4.0790 hn        1 CR4      0.358700
     28 HC2'       -1.3740    0.7110    6.0860 ha        1 CR4      0.125000
     29 HC3'       -1.3710    0.7930    8.5600 ha        1 CR4      0.115000
     30 HC4'        0.6510    0.1320    9.8370 ha        1 CR4      0.108000
     31 HC5'        2.7120   -0.6230    8.6340 ha        1 CR4      0.129000
@<TRIPOS>BOND
     1    1    2 ar  
     2    1    6 ar  
     3    1    7 1   
     4    2    3 ar  
     5    2   20 1   
     6    3    4 ar  
     7    3   21 1   
     8    4    5 ar  
     9    4   10 2   
    10    5    6 ar  
    11    5   11 2   
    12    6   22 1   
    13    7    8 2   
    14    7    9 1   
    15    8   23 1   
    16    8   24 1   
    17    9   25 1   
    18    9   26 1   
    19   10   12 1   
    20   10   27 1   
    21   11   12 1   
    22   12   13 2   
    23   13   14 1   
    24   13   18 1   
    25   14   15 2   
    26   14   28 1   
    27   15   16 1   
    28   15   29 1   
    29   16   17 2   
    30   16   30 1   
    31   17   18 1   
    32   17   31 1   
    33   18   19 2   
@<TRIPOS>SUBSTRUCTURE
     1 CR4         1 TEMP              0 ****  ****    0 ROOT
