@<TRIPOS>MOLECULE
molecule
   52    55     1     0     0
SMALL
bcc


@<TRIPOS>ATOM
      1 C1           0.0000     0.0000     0.0000 ca         1 CR9      -0.180900
      2 C2           1.4020     0.0000     0.0000 ca         1 CR9       0.163900
      3 F2           2.0760    -0.0020    -1.1710 f          1 CR9      -0.138900
      4 C3           2.0970     0.0000     1.1910 ca         1 CR9      -0.169000
      5 C4           1.4090     0.0010     2.3970 ca         1 CR9       0.018000
      6 C5           0.0000     0.0020     2.4090 ca         1 CR9      -0.031000
      7 C6          -0.7000     0.0020     1.2030 ca         1 CR9      -0.069000
      8 C7          -0.7360    -0.0000    -1.2810 ce         1 CR9       0.032800
      9 N1          -0.5420     0.9810    -2.1620 nz         1 CR9      -0.663600
     10 N2          -1.5960    -0.9820    -1.5550 nv         1 CR9      -0.485100
     11 N3           1.8040     0.0010     3.7190 na         1 CR9      -0.222600
     12 N4          -0.3890    -0.0030     3.7080 nc         1 CR9      -0.260600
     13 C8           0.6680     0.0030     4.4840 cc         1 CR9       0.192500
     14 C1'          0.6380     0.0030     5.9600 cd         1 CR9      -0.009000
     15 C2'          1.5480     0.7790     6.6800 cd         1 CR9      -0.163000
     16 C3'          1.5170     0.7780     8.0580 cc         1 CR9      -0.006000
     17 C4'          0.5860     0.0110     8.7360 cc         1 CR9      -0.263000
     18 C5'         -0.3240    -0.7640     8.0360 cd         1 CR9       0.171100
     19 C6'         -0.3000    -0.7770     6.6450 c          1 CR9       0.412100
     20 O6'         -1.1910    -1.5370     5.9550 o          1 CR9      -0.438100
     21 O5'         -1.2360    -1.5160     8.7070 os         1 CR9      -0.213900
     22 C1B         -1.4950    -2.6210    10.8410 c3         1 CR9      -0.067700
     23 C2B         -1.1460    -2.5170    12.3270 c3         1 CR9      -0.075400
     24 C3B         -1.7320    -1.2250    12.9000 c3         1 CR9      -0.085400
     25 C4B         -1.1470    -0.0250    12.1540 c3         1 CR9      -0.077400
     26 C5B         -1.4960    -0.1280    10.6680 c3         1 CR9      -0.116400
     27 C6B         -0.9100    -1.4200    10.0940 c3         1 CR9       0.099100
     28 C1A         -0.9100    -3.9120    10.2680 c3         1 CR9      -0.093100
     29 HC3          3.1800    -0.0000     1.1850 ha         1 CR9       0.162000
     30 HC6         -1.7830     0.0020     1.2030 ha         1 CR9       0.165000
     31 HH11         0.0310     0.6480    -2.9120 hn         1 CR9       0.433800
     32 HH12        -1.4240     1.2840    -2.5250 hn         1 CR9       0.433800
     33 HH21        -2.0960    -0.9820    -2.4220 hn         1 CR9       0.301700
     34 HH22        -1.7430    -1.7180    -0.8930 hn         1 CR9       0.301700
     35 HN3          2.7460     0.0050     4.0560 hn         1 CR9       0.319700
     36 HC2'         2.2800     1.3820     6.1560 ha         1 CR9       0.147000
     37 HC3'         2.2250     1.3820     8.6140 ha         1 CR9       0.158000
     38 HC4'         0.5670     0.0180     9.8190 ha         1 CR9       0.181000
     39 H1B         -2.5720    -2.6250    10.7250 hc         1 CR9       0.072700
     40 H2A         -1.5630    -3.3660    12.8550 hc         1 CR9       0.053200
     41 H2B         -0.0690    -2.5070    12.4440 hc         1 CR9       0.053200
     42 H3A         -2.8080    -1.2340    12.7800 hc         1 CR9       0.053700
     43 H3B         -1.4820    -1.1520    13.9520 hc         1 CR9       0.053700
     44 H4A         -0.0700    -0.0190    12.2710 hc         1 CR9       0.048700
     45 H4B         -1.5640     0.8890    12.5590 hc         1 CR9       0.048700
     46 H5A         -1.0780     0.7220    10.1410 hc         1 CR9       0.060700
     47 H5B         -2.5730    -0.1380    10.5520 hc         1 CR9       0.060700
     48 H6B          0.1660    -1.4120    10.2170 h1         1 CR9       0.065700
     49 H1AA        -1.1710    -4.7430    10.9120 hc         1 CR9       0.043367
     50 H1AB         0.1680    -3.8250    10.2100 hc         1 CR9       0.043367
     51 H1AC        -1.3130    -4.0820     9.2770 hc         1 CR9       0.043367
     52 H13         -0.0910     1.7520    -1.7090 hn         1 CR9       0.433800
@<TRIPOS>BOND
     1     1     2 ar
     2     1     7 ar
     3     1     8 1
     4     2     3 1
     5     2     4 ar
     6     4     5 ar
     7     4    29 1
     8     5     6 ar
     9     5    11 2
    10     6     7 ar
    11     6    12 2
    12     7    30 1
    13     8     9 1
    14     8    10 2
    15     9    31 1
    16     9    32 1
    17    10    33 1
    18    10    34 1
    19    11    13 1
    20    11    35 1
    21    12    13 1
    22    13    14 2
    23    14    15 1
    24    14    19 1
    25    15    16 2
    26    15    36 1
    27    16    17 1
    28    16    37 1
    29    17    18 2
    30    17    38 1
    31    18    19 1
    32    18    21 1
    33    19    20 2
    34    21    27 1
    35    22    23 1
    36    22    27 1
    37    22    28 1
    38    22    39 1
    39    23    24 1
    40    23    40 1
    41    23    41 1
    42    24    25 1
    43    24    42 1
    44    24    43 1
    45    25    26 1
    46    25    44 1
    47    25    45 1
    48    26    27 1
    49    26    46 1
    50    26    47 1
    51    27    48 1
    52    28    49 1
    53    28    50 1
    54    28    51 1
    55    52     9 1
@<TRIPOS>SUBSTRUCTURE
     1 CR9         1 TEMP              0 ****  ****    0 ROOT
