@<TRIPOS>MOLECULE
CR9
   51    54     1     0     0
SMALL
bcc


@<TRIPOS>ATOM
      1 C1         -0.0480   -0.3410    0.1320 ca        1 CR9     -0.307900
      2 C2          1.3370   -0.0340    0.0630 ca        1 CR9      0.129900
      3 F2          1.9780   -0.0270   -1.1350 f         1 CR9     -0.159900
      4 C3          2.0920    0.2320    1.2170 ca        1 CR9     -0.184000
      5 C4          1.4370    0.1970    2.4420 ca        1 CR9      0.037000
      6 C5         -0.0100   -0.1020    2.5380 ca        1 CR9     -0.007000
      7 C6         -0.7180   -0.3620    1.3730 ca        1 CR9     -0.111000
      8 C7         -0.8260   -0.6600   -1.0730 ce        1 CR9      0.534400
      9 N1         -0.6160    0.0350   -2.2220 nh        1 CR9     -0.491600
     10 N2         -1.7610   -1.6440   -1.0040 nh        1 CR9     -0.475700
     11 N3          1.8540    0.4050    3.7380 na        1 CR9     -0.282600
     12 N4         -0.4200   -0.0580    3.8600 nc        1 CR9     -0.319600
     13 C8          0.7060    0.2330    4.6040 cc        1 CR9      0.323500
     14 C1'         0.8130    0.3710    6.0090 cd        1 CR9     -0.335200
     15 C2'         1.9240    1.0460    6.5920 cd        1 CR9     -0.056000
     16 C3'         2.0330    1.2500    7.9350 cc        1 CR9     -0.221000
     17 C4'         1.0020    0.8010    8.8120 cc        1 CR9     -0.133000
     18 C5'        -0.0740    0.1390    8.3060 cd        1 CR9     -0.026100
     19 C6'        -0.2250   -0.1860    6.8680 c         1 CR9      0.597500
     20 O6'        -1.1500   -0.9250    6.4810 o         1 CR9     -0.596100
     21 O5'        -1.1670   -0.2190    9.0810 os        1 CR9     -0.321900
     22 C1B        -1.7250   -2.2150   10.2780 c3        1 CR9     -0.069700
     23 C2B        -1.5680   -2.9550   11.5970 c3        1 CR9     -0.075400
     24 C3B        -1.8880   -2.0660   12.7800 c3        1 CR9     -0.077400
     25 C4B        -1.0280   -0.8190   12.7740 c3        1 CR9     -0.074400
     26 C5B        -1.1720   -0.0610   11.4730 c3        1 CR9     -0.096400
     27 C6B        -0.8480   -0.9550   10.2770 c3        1 CR9      0.145100
     28 C1A        -1.3710   -3.1130    9.1130 c3        1 CR9     -0.102100
     29 HC3         3.1650    0.4510    1.1300 ha        1 CR9      0.158000
     30 HC6        -1.8010   -0.5440    1.4400 ha        1 CR9      0.149000
     31 HH11        0.1200    0.7090   -2.2370 hn        1 CR9      0.314700
     32 HH12       -1.0670   -0.1900   -3.0780 hn        1 CR9      0.314700
     33 HH21       -1.8910   -2.1110   -0.1300 hn        1 CR9      0.314700
     34 HH22       -2.3790   -1.8560   -1.7510 hn        1 CR9      0.314700
     35 HN3         2.7710    0.6080    4.0340 hn        1 CR9      0.309700
     36 HC2'        2.7190    1.4460    5.9430 ha        1 CR9      0.086000
     37 HC3'        2.8960    1.7750    8.3650 ha        1 CR9      0.116000
     38 HC4'        1.0950    1.0010    9.8890 ha        1 CR9      0.121000
     39 H1B        -2.7950   -1.8850   10.1650 hc        1 CR9      0.061700
     40 H2A        -0.5160   -3.3350   11.6880 hc        1 CR9      0.036200
     41 H2B        -2.2480   -3.8460   11.6010 hc        1 CR9      0.036200
     42 H3A        -1.7230   -2.6330   13.7330 hc        1 CR9      0.035700
     43 H3B        -2.9700   -1.7720   12.7450 hc        1 CR9      0.035700
     44 H4A         0.0460   -1.1060   12.9250 hc        1 CR9      0.035200
     45 H4B        -1.3210   -0.1540   13.6280 hc        1 CR9      0.035200
     46 H5A        -2.2190    0.3230   11.3640 hc        1 CR9      0.049200
     47 H5B        -0.4870    0.8250   11.4660 hc        1 CR9      0.049200
     48 H6B         0.2370   -1.2460   10.2930 h1        1 CR9      0.048700
     49 H1AA       -0.3350   -3.5140    9.2230 hc        1 CR9      0.044033
     50 H1AB       -2.0800   -3.9730    9.0600 hc        1 CR9      0.044033
     51 H1AC       -1.4310   -2.5290    8.1580 hc        1 CR9      0.044033
@<TRIPOS>BOND
     1    1    2 ar  
     2    1    7 ar  
     3    1    8 1   
     4    2    3 1   
     5    2    4 ar  
     6    4    5 ar  
     7    4   29 1   
     8    5    6 ar  
     9    5   11 2   
    10    6    7 ar  
    11    6   12 2   
    12    7   30 1   
    13    8    9 2   
    14    8   10 1   
    15    9   31 1   
    16    9   32 1   
    17   10   33 1   
    18   10   34 1   
    19   11   13 1   
    20   11   35 1   
    21   12   13 1   
    22   13   14 2   
    23   14   15 1   
    24   14   19 1   
    25   15   16 2   
    26   15   36 1   
    27   16   17 1   
    28   16   37 1   
    29   17   18 2   
    30   17   38 1   
    31   18   19 1   
    32   18   21 1   
    33   19   20 2   
    34   21   27 1   
    35   22   23 1   
    36   22   27 1   
    37   22   28 1   
    38   22   39 1   
    39   23   24 1   
    40   23   40 1   
    41   23   41 1   
    42   24   25 1   
    43   24   42 1   
    44   24   43 1   
    45   25   26 1   
    46   25   44 1   
    47   25   45 1   
    48   26   27 1   
    49   26   46 1   
    50   26   47 1   
    51   27   48 1   
    52   28   49 1   
    53   28   50 1   
    54   28   51 1   
@<TRIPOS>SUBSTRUCTURE
     1 CR9         1 TEMP              0 ****  ****    0 ROOT
