@<TRIPOS>MOLECULE
molecule
   29    29     1     0     0
SMALL
bcc


@<TRIPOS>ATOM
      1 C1           1.5070     0.0000     0.0000 c          1 CRB       0.891600
      2 O11          2.1770    -0.0000    -1.1630 o          1 CRB      -0.872300
      3 O12          2.1120    -0.0010     1.0460 o          1 CRB      -0.872300
      4 C2           0.0000     0.0000     0.0000 c3         1 CRB       0.051800
      5 O2          -0.4760     0.0000     1.3480 oh         1 CRB      -0.614800
      6 C3          -0.5090     1.2490    -0.7200 c3         1 CRB      -0.087400
      7 C4          -2.0380     1.2500    -0.7200 c3         1 CRB       0.110100
      8 O4          -2.5150     2.4170    -1.3910 oh         1 CRB      -0.649800
      9 C5          -2.5500     0.0010    -1.4390 c3         1 CRB       0.149100
     10 O5          -3.9780     0.0020    -1.4390 oh         1 CRB      -0.603800
     11 C6          -2.0390    -1.2480    -0.7180 c3         1 CRB      -0.025700
     12 C7          -2.5510    -2.4970    -1.4400 c3         1 CRB      -0.247600
     13 C8          -0.5110    -1.2490    -0.7200 c3         1 CRB      -0.064400
     14 P1          -2.3620    -3.9470    -0.3530 p5         1 CRB       1.071700
     15 O91         -3.0330    -3.6830     0.9400 o          1 CRB      -0.926500
     16 O92         -3.0320    -5.2330    -1.0510 o          1 CRB      -0.926500
     17 O93         -0.7970    -4.2270    -0.0970 o          1 CRB      -0.926500
     18 HO2          0.2080     0.3020     1.9220 ho         1 CRB       0.390000
     19 H31         -0.1490     2.1320    -0.2060 hc         1 CRB       0.029700
     20 H32         -0.1490     1.2480    -1.7410 hc         1 CRB       0.029700
     21 H4          -2.3960     1.2460     0.3030 h1         1 CRB       0.049700
     22 HO4         -2.8200     3.0440    -0.7560 ho         1 CRB       0.364000
     23 H5          -2.1850     0.0000    -2.4590 h1         1 CRB       0.016700
     24 HO5         -4.2930     0.3220    -2.2680 ho         1 CRB       0.357000
     25 H6          -2.3970    -1.2440     0.3040 hc         1 CRB       0.091700
     26 H71         -1.9790    -2.6490    -2.3480 hc         1 CRB       0.015200
     27 H72         -3.5970    -2.3660    -1.6900 hc         1 CRB       0.015200
     28 H81         -0.1510    -2.1330    -0.2080 hc         1 CRB       0.092200
     29 H82         -0.1520    -1.2470    -1.7430 hc         1 CRB       0.092200
@<TRIPOS>BOND
     1     1     2 1
     2     1     3 1
     3     1     4 1
     4     4     5 1
     5     4     6 1
     6     4    13 1
     7     5    18 1
     8     6     7 1
     9     6    19 1
    10     6    20 1
    11     7     8 1
    12     7     9 1
    13     7    21 1
    14     8    22 1
    15     9    10 1
    16     9    11 1
    17     9    23 1
    18    10    24 1
    19    11    12 1
    20    11    13 1
    21    11    25 1
    22    12    14 1
    23    12    26 1
    24    12    27 1
    25    13    28 1
    26    13    29 1
    27    14    15 1
    28    14    16 1
    29    14    17 1
@<TRIPOS>SUBSTRUCTURE
     1 CRB         1 TEMP              0 ****  ****    0 ROOT
