@<TRIPOS>MOLECULE
CRB
   29    29     1     0     0
SMALL
bcc


@<TRIPOS>ATOM
      1 C1          1.5850    0.4270   -0.1720 c         1 CRB      0.894600
      2 O11         2.0430    0.8460   -1.2760 o         1 CRB     -0.870300
      3 O12         2.3240    0.2150    0.8370 o         1 CRB     -0.870300
      4 C2          0.0510    0.2110    0.0050 c3        1 CRB      0.046800
      5 O2         -0.2590    0.3100    1.3980 oh        1 CRB     -0.632800
      6 C3         -0.6810    1.3600   -0.6830 c3        1 CRB     -0.077400
      7 C4         -2.1770    1.1190   -0.6990 c3        1 CRB      0.087100
      8 O4         -2.8590    2.1780   -1.3910 oh        1 CRB     -0.652800
      9 C5         -2.5110   -0.1950   -1.4280 c3        1 CRB      0.159100
     10 O5         -3.9230   -0.3440   -1.4880 oh        1 CRB     -0.565800
     11 C6         -1.8890   -1.3980   -0.6900 c3        1 CRB     -0.012700
     12 C7         -2.1700   -2.6800   -1.4200 c3        1 CRB     -0.282600
     13 C8         -0.3820   -1.1470   -0.5600 c3        1 CRB     -0.078400
     14 P1         -2.8290   -3.9910   -0.3610 p5        1 CRB      1.219700
     15 O91        -3.2230   -3.3660    0.9610 o         1 CRB     -0.965833
     16 O92        -4.0000   -4.5260   -1.1680 o         1 CRB     -0.965833
     17 O93        -1.6870   -4.9850   -0.2610 o         1 CRB     -0.965833
     18 HO2         0.4230   -0.2070    1.8490 ho        1 CRB      0.414000
     19 H31        -0.4580    2.3180   -0.1450 hc        1 CRB      0.032700
     20 H32        -0.2850    1.4450   -1.7280 hc        1 CRB      0.032700
     21 H4         -2.5790    1.0720    0.3520 h1        1 CRB      0.059700
     22 HO4        -2.4570    2.9970   -1.0870 ho        1 CRB      0.369000
     23 H5         -2.1050   -0.1370   -2.4780 h1        1 CRB      0.003700
     24 HO5        -4.2440    0.4310   -1.9630 ho        1 CRB      0.354000
     25 H6         -2.3590   -1.4860    0.3370 hc        1 CRB      0.122700
     26 H71        -1.2560   -3.0860   -1.9040 hc        1 CRB      0.026700
     27 H72        -2.9420   -2.5250   -2.2060 hc        1 CRB      0.026700
     28 H81         0.0950   -1.2440   -1.5710 hc        1 CRB      0.047200
     29 H82         0.0410   -1.9500    0.0980 hc        1 CRB      0.047200
@<TRIPOS>BOND
     1    1    2 1   
     2    1    3 1   
     3    1    4 1   
     4    4    5 1   
     5    4    6 1   
     6    4   13 1   
     7    5   18 1   
     8    6    7 1   
     9    6   19 1   
    10    6   20 1   
    11    7    8 1   
    12    7    9 1   
    13    7   21 1   
    14    8   22 1   
    15    9   10 1   
    16    9   11 1   
    17    9   23 1   
    18   10   24 1   
    19   11   12 1   
    20   11   13 1   
    21   11   25 1   
    22   12   14 1   
    23   12   26 1   
    24   12   27 1   
    25   13   28 1   
    26   13   29 1   
    27   14   15 1   
    28   14   16 1   
    29   14   17 1   
@<TRIPOS>SUBSTRUCTURE
     1 CRB         1 TEMP              0 ****  ****    0 ROOT
