@<TRIPOS>MOLECULE
CRC
   31    30     1     0     0
SMALL
bcc


@<TRIPOS>ATOM
      1 O1          0.3020   -0.6270    0.1880 o         1 CRC     -0.853800
      2 C1          1.3180    0.1130    0.0410 c         1 CRC      0.907600
      3 O2          1.7170    0.9400    0.9110 o         1 CRC     -0.853800
      4 C2          2.0930    0.0100   -1.2850 c3        1 CRC     -0.193400
      5 C3          3.5810   -0.0590   -1.0470 c3        1 CRC     -0.065400
      6 C4          4.3650    0.0240   -2.3410 c3        1 CRC     -0.078400
      7 C5          5.8560   -0.0650   -2.0930 c3        1 CRC     -0.078400
      8 C6          6.6400    0.0260   -3.3850 c3        1 CRC     -0.078400
      9 C7          8.1300   -0.0630   -3.1340 c3        1 CRC     -0.079400
     10 C8          8.9140    0.0270   -4.4260 c3        1 CRC     -0.078400
     11 C9         10.4040   -0.0610   -4.1760 c3        1 CRC     -0.080400
     12 C10        11.1890    0.0270   -5.4590 c3        1 CRC     -0.091100
     13 H21         1.8450    0.9140   -1.8970 hc        1 CRC      0.018700
     14 H22         1.7460   -0.8920   -1.8480 hc        1 CRC      0.018700
     15 H31         3.8750    0.7810   -0.3630 hc        1 CRC      0.043700
     16 H32         3.8310   -1.0170   -0.5190 hc        1 CRC      0.043700
     17 H41         4.1280    0.9890   -2.8610 hc        1 CRC      0.025700
     18 H42         4.0490   -0.8060   -3.0260 hc        1 CRC      0.025700
     19 H51         6.1690    0.7630   -1.4030 hc        1 CRC      0.036700
     20 H52         6.0930   -1.0320   -1.5760 hc        1 CRC      0.036700
     21 H61         6.3250   -0.8010   -4.0740 hc        1 CRC      0.034200
     22 H62         6.4020    0.9930   -3.9010 hc        1 CRC      0.034200
     23 H71         8.4440    0.7650   -2.4450 hc        1 CRC      0.037200
     24 H72         8.3670   -1.0300   -2.6170 hc        1 CRC      0.037200
     25 H81         8.6770    0.9940   -4.9430 hc        1 CRC      0.036700
     26 H82         8.6000   -0.8010   -5.1140 hc        1 CRC      0.036700
     27 H91        10.6390   -1.0280   -3.6560 hc        1 CRC      0.037200
     28 H92        10.7160    0.7670   -3.4860 hc        1 CRC      0.037200
     29 H101       10.9090   -0.8060   -6.1490 hc        1 CRC      0.028033
     30 H102       12.2840   -0.0400   -5.2520 hc        1 CRC      0.028033
     31 H103       10.9860    0.9940   -5.9790 hc        1 CRC      0.028033
@<TRIPOS>BOND
     1    1    2 1   
     2    2    3 1   
     3    2    4 1   
     4    4    5 1   
     5    4   13 1   
     6    4   14 1   
     7    5    6 1   
     8    5   15 1   
     9    5   16 1   
    10    6    7 1   
    11    6   17 1   
    12    6   18 1   
    13    7    8 1   
    14    7   19 1   
    15    7   20 1   
    16    8    9 1   
    17    8   21 1   
    18    8   22 1   
    19    9   10 1   
    20    9   23 1   
    21    9   24 1   
    22   10   11 1   
    23   10   25 1   
    24   10   26 1   
    25   11   12 1   
    26   11   27 1   
    27   11   28 1   
    28   12   29 1   
    29   12   30 1   
    30   12   31 1   
@<TRIPOS>SUBSTRUCTURE
     1 CRC         1 TEMP              0 ****  ****    0 ROOT
