@<TRIPOS>MOLECULE
molecule
   31    30     1     0     0
SMALL
bcc


@<TRIPOS>ATOM
      1 O1           0.0000     0.0000     0.0000 o          1 CRC      -0.858300
      2 C1           1.3410     0.0000     0.0000 c          1 CRC       0.891600
      3 O2           1.9460     0.0000     1.0470 o          1 CRC      -0.858300
      4 C2           2.0970    -0.0000    -1.3040 c3         1 CRC      -0.183400
      5 C3           3.6000     0.0000    -1.0240 c3         1 CRC      -0.063400
      6 C4           4.3660    -0.0000    -2.3480 c3         1 CRC      -0.088400
      7 C5           5.8700     0.0000    -2.0670 c3         1 CRC      -0.081400
      8 C6           6.6360    -0.0000    -3.3910 c3         1 CRC      -0.083400
      9 C7           8.1390     0.0000    -3.1120 c3         1 CRC      -0.082400
     10 C8           8.9050    -0.0000    -4.4360 c3         1 CRC      -0.082400
     11 C9          10.4090     0.0000    -4.1550 c3         1 CRC      -0.084400
     12 C10         11.1750    -0.0000    -5.4790 c3         1 CRC      -0.092100
     13 H21          1.8350    -0.8840    -1.8720 hc         1 CRC       0.026700
     14 H22          1.8350     0.8840    -1.8720 hc         1 CRC       0.026700
     15 H31          3.8610    -0.8840    -0.4560 hc         1 CRC       0.044700
     16 H32          3.8610     0.8840    -0.4560 hc         1 CRC       0.044700
     17 H41          4.1050     0.8840    -2.9160 hc         1 CRC       0.028700
     18 H42          4.1050    -0.8840    -2.9160 hc         1 CRC       0.028700
     19 H51          6.1310     0.8840    -1.4990 hc         1 CRC       0.038700
     20 H52          6.1310    -0.8840    -1.4990 hc         1 CRC       0.038700
     21 H61          6.3750    -0.8840    -3.9600 hc         1 CRC       0.035700
     22 H62          6.3750     0.8840    -3.9600 hc         1 CRC       0.035700
     23 H71          8.4010     0.8840    -2.5430 hc         1 CRC       0.038700
     24 H72          8.4010    -0.8840    -2.5430 hc         1 CRC       0.038700
     25 H81          8.6440     0.8840    -5.0040 hc         1 CRC       0.038700
     26 H82          8.6440    -0.8840    -5.0040 hc         1 CRC       0.038700
     27 H91         10.6700     0.8840    -3.5870 hc         1 CRC       0.038700
     28 H92         10.6700    -0.8840    -3.5870 hc         1 CRC       0.038700
     29 H101        12.2400    -0.0000    -5.2800 hc         1 CRC       0.028700
     30 H102        10.9140    -0.8850    -6.0470 hc         1 CRC       0.028700
     31 H103        10.9140     0.8850    -6.0470 hc         1 CRC       0.028700
@<TRIPOS>BOND
     1     1     2 1
     2     2     3 1
     3     2     4 1
     4     4     5 1
     5     4    13 1
     6     4    14 1
     7     5     6 1
     8     5    15 1
     9     5    16 1
    10     6     7 1
    11     6    17 1
    12     6    18 1
    13     7     8 1
    14     7    19 1
    15     7    20 1
    16     8     9 1
    17     8    21 1
    18     8    22 1
    19     9    10 1
    20     9    23 1
    21     9    24 1
    22    10    11 1
    23    10    25 1
    24    10    26 1
    25    11    12 1
    26    11    27 1
    27    11    28 1
    28    12    29 1
    29    12    30 1
    30    12    31 1
@<TRIPOS>SUBSTRUCTURE
     1 CRC         1 TEMP              0 ****  ****    0 ROOT
