@<TRIPOS>MOLECULE
molecule
   11    10     1     0     0
SMALL
bcc


@<TRIPOS>ATOM
      1 CC1          0.0000     0.0000     0.0000 c3         1 CRD      -0.070900
      2 CC2          1.5060     0.0000     0.0000 c2         1 CRD      -0.104200
      3 CC3          2.1750     0.0000     1.1540 ce         1 CRD      -0.283200
      4 CC4          3.6360    -0.0000     1.1540 c          1 CRD       0.565100
      5 OC1          4.2450    -0.0000     2.2030 o          1 CRD      -0.524100
      6 HC11        -0.3610    -0.8850     0.5110 hc         1 CRD       0.050033
      7 HC12        -0.3610     0.0000    -1.0210 hc         1 CRD       0.050033
      8 HC13        -0.3610     0.8840     0.5110 hc         1 CRD       0.050033
      9 HC2          2.0460    -0.0000    -0.9390 ha         1 CRD       0.126000
     10 HC3          1.6350     0.0000     2.0930 ha         1 CRD       0.150000
     11 HC4          4.1770    -0.0000     0.2150 h4         1 CRD      -0.007800
@<TRIPOS>BOND
     1     1     2 1
     2     1     6 1
     3     1     7 1
     4     1     8 1
     5     2     3 2
     6     2     9 1
     7     3     4 1
     8     3    10 1
     9     4     5 2
    10     4    11 1
@<TRIPOS>SUBSTRUCTURE
     1 CRD         1 TEMP              0 ****  ****    0 ROOT
