@<TRIPOS>MOLECULE
CRD
   11    10     1     0     0
SMALL
bcc


@<TRIPOS>ATOM
      1 CC1        -0.0110   -0.0710    0.0510 c3        1 CRD     -0.080900
      2 CC2         1.3860    0.3550    0.2530 c2        1 CRD     -0.092200
      3 CC3         2.2940   -0.3600    0.9290 ce        1 CRD     -0.279200
      4 CC4         3.6760    0.0970    1.1090 c         1 CRD      0.560100
      5 OC1         4.5220   -0.5520    1.7290 o         1 CRD     -0.526100
      6 HC11       -0.7080    0.6880    0.4900 hc        1 CRD      0.052367
      7 HC12       -0.2210   -1.0600    0.5280 hc        1 CRD      0.052367
      8 HC13       -0.2300   -0.1520   -1.0440 hc        1 CRD      0.052367
      9 HC2         1.6510    1.3280   -0.1980 ha        1 CRD      0.122000
     10 HC3         2.0490   -1.3330    1.3860 ha        1 CRD      0.149000
     11 HC4         3.9290    1.0800    0.6470 h4        1 CRD     -0.009800
@<TRIPOS>BOND
     1    1    2 1   
     2    1    6 1   
     3    1    7 1   
     4    1    8 1   
     5    2    3 2   
     6    2    9 1   
     7    3    4 1   
     8    3   10 1   
     9    4    5 2   
    10    4   11 1   
@<TRIPOS>SUBSTRUCTURE
     1 CRD         1 TEMP              0 ****  ****    0 ROOT
