@<TRIPOS>MOLECULE
CRE
   39    39     1     0     0
SMALL
bcc


@<TRIPOS>ATOM
      1 C1         -0.0420   -0.0640    0.2790 c3        1 CRE     -0.061400
      2 C2          1.4430   -0.3650    0.1860 c3        1 CRE     -0.042200
      3 C3          2.2450   -0.2040    1.4310 c2        1 CRE     -0.097400
      4 C4          1.6030   -0.6840    2.6830 c3        1 CRE     -0.065900
      5 C5          3.4930    0.2930    1.4660 c2        1 CRE     -0.183200
      6 C6          4.2990    0.7910    0.3250 c3        1 CRE     -0.038200
      7 C7          4.1420    2.2930    0.0970 c3        1 CRE     -0.035200
      8 C8          2.8160    2.5840   -0.5260 c2        1 CRE     -0.136400
      9 C9          2.8220    2.8660   -1.9780 c3        1 CRE     -0.053900
     10 C10         1.7100    2.4720    0.2270 c2        1 CRE     -0.163200
     11 C11         0.3170    2.4220   -0.2640 c3        1 CRE     -0.037200
     12 C12        -0.5340    1.3750    0.4480 c3        1 CRE     -0.014500
     13 C13        -0.8750    1.7150    1.8680 c2        1 CRE     -0.109400
     14 C14        -1.8580    0.8040    2.5210 c3        1 CRE     -0.065900
     15 C15        -0.4280    2.7910    2.5240 c2        1 CRE     -0.230000
     16 H11        -0.4880   -0.4390   -0.6860 hc        1 CRE      0.036700
     17 H12A       -0.4790   -0.6920    1.1000 hc        1 CRE      0.036700
     18 H21         1.8870    0.2400   -0.6490 hc        1 CRE      0.049700
     19 H22         1.5350   -1.4490   -0.1180 hc        1 CRE      0.049700
     20 H41         1.1150   -1.6760    2.5170 hc        1 CRE      0.041700
     21 H42         2.3440   -0.7910    3.5130 hc        1 CRE      0.041700
     22 H43         0.8180    0.0480    3.0050 hc        1 CRE      0.041700
     23 H51         4.0150    0.3560    2.4380 ha        1 CRE      0.114000
     24 H61         5.3830    0.5780    0.5330 hc        1 CRE      0.042700
     25 H62         4.0330    0.2460   -0.6200 hc        1 CRE      0.042700
     26 H71         4.2430    2.8330    1.0750 hc        1 CRE      0.045200
     27 H72         4.9730    2.6460   -0.5690 hc        1 CRE      0.045200
     28 H91         3.6480    3.5760   -2.2350 hc        1 CRE      0.038700
     29 H92         2.9850    1.9170   -2.5500 hc        1 CRE      0.038700
     30 H93         1.8580    3.3200   -2.3150 hc        1 CRE      0.038700
     31 H10         1.8210    2.3040    1.3150 ha        1 CRE      0.135000
     32 H111        0.3000    2.1860   -1.3630 hc        1 CRE      0.047700
     33 H112       -0.1660    3.4300   -0.1330 hc        1 CRE      0.047700
     34 H12        -1.5370    1.4060   -0.0900 hc        1 CRE      0.044700
     35 H141       -1.3290   -0.0370    3.0370 hc        1 CRE      0.040700
     36 H142       -2.5600    0.3670    1.7700 hc        1 CRE      0.040700
     37 H143       -2.4610    1.3520    3.2870 hc        1 CRE      0.040700
     38 H151        0.2730    3.5180    2.0980 ha        1 CRE      0.115000
     39 H152       -0.7510    3.0140    3.5500 ha        1 CRE      0.115000
@<TRIPOS>BOND
     1    1    2 1   
     2    1   12 1   
     3    1   16 1   
     4    1   17 1   
     5    2    3 1   
     6    2   18 1   
     7    2   19 1   
     8    3    4 1   
     9    3    5 2   
    10    4   20 1   
    11    4   21 1   
    12    4   22 1   
    13    5    6 1   
    14    5   23 1   
    15    6    7 1   
    16    6   24 1   
    17    6   25 1   
    18    7    8 1   
    19    7   26 1   
    20    7   27 1   
    21    8    9 1   
    22    8   10 2   
    23    9   28 1   
    24    9   29 1   
    25    9   30 1   
    26   10   11 1   
    27   10   31 1   
    28   11   12 1   
    29   11   32 1   
    30   11   33 1   
    31   12   13 1   
    32   12   34 1   
    33   13   14 1   
    34   13   15 2   
    35   14   35 1   
    36   14   36 1   
    37   14   37 1   
    38   15   38 1   
    39   15   39 1   
@<TRIPOS>SUBSTRUCTURE
     1 CRE         1 TEMP              0 ****  ****    0 ROOT
