@<TRIPOS>MOLECULE
molecule
   39    39     1     0     0
SMALL
bcc


@<TRIPOS>ATOM
      1 C1           0.0000     0.0000     0.0000 c3         1 CRE      -0.073400
      2 C2           1.5210     0.0000     0.0000 c3         1 CRE      -0.089200
      3 C3           2.0620     0.0000     1.4040 c2         1 CRE      -0.097400
      4 C4           1.1870    -0.4600     2.5440 c3         1 CRE      -0.074900
      5 C5           3.2890     0.3830     1.6570 c2         1 CRE      -0.200200
      6 C6           4.2330     0.8200     0.5720 c3         1 CRE      -0.037200
      7 C7           4.0160     2.3030     0.2430 c3         1 CRE      -0.031200
      8 C8           2.6720     2.4280    -0.4330 c2         1 CRE      -0.150400
      9 C9           2.5820     2.4770    -1.9340 c3         1 CRE      -0.053900
     10 C10          1.5980     2.5020     0.3070 c2         1 CRE      -0.180200
     11 C11          0.2310     2.4910    -0.3210 c3         1 CRE      -0.048200
     12 C12         -0.5850     1.3670     0.3230 c3         1 CRE      -0.021500
     13 C13         -0.5940     1.5580     1.8160 c2         1 CRE      -0.115400
     14 C14         -1.3100     0.5670     2.6980 c3         1 CRE      -0.059900
     15 C15          0.0200     2.5850     2.3500 c2         1 CRE      -0.257000
     16 H11         -0.3480    -0.3060    -0.9790 hc         1 CRE       0.042200
     17 H12A        -0.3490    -0.7110     0.7390 hc         1 CRE       0.042200
     18 H21          1.8750     0.8840    -0.5160 hc         1 CRE       0.072700
     19 H22          1.8750    -0.8840    -0.5160 hc         1 CRE       0.072700
     20 H41          0.8970     0.3940     3.1440 hc         1 CRE       0.046033
     21 H42          1.7360    -1.1640     3.1590 hc         1 CRE       0.046033
     22 H43          0.3010    -0.9410     2.1480 hc         1 CRE       0.046033
     23 H51          3.6350     0.3840     2.6830 ha         1 CRE       0.118000
     24 H61          5.2530     0.6750     0.9070 hc         1 CRE       0.044700
     25 H62          4.0540     0.2280    -0.3170 hc         1 CRE       0.044700
     26 H71          4.0220     2.8860     1.1570 hc         1 CRE       0.046700
     27 H72          4.7960     2.6480    -0.4250 hc         1 CRE       0.046700
     28 H91          1.9370     3.2950    -2.2310 hc         1 CRE       0.041367
     29 H92          3.5710     2.6280    -2.3500 hc         1 CRE       0.041367
     30 H93          2.1740     1.5430    -2.3020 hc         1 CRE       0.041367
     31 H10          1.6940     2.5920     1.3820 ha         1 CRE       0.161000
     32 H111        -0.2580     3.4410    -0.1450 hc         1 CRE       0.051200
     33 H112         0.3210     2.3120    -1.3850 hc         1 CRE       0.051200
     34 H12         -1.6010     1.4120    -0.0510 hc         1 CRE       0.054700
     35 H141        -2.3090     0.9270     2.9090 hc         1 CRE       0.042367
     36 H142        -0.7650     0.4510     3.6270 hc         1 CRE       0.042367
     37 H143        -1.3690    -0.3890     2.1930 hc         1 CRE       0.042367
     38 H151         0.0130     2.7220     3.4250 ha         1 CRE       0.125000
     39 H152         0.5340     3.2980     1.7170 ha         1 CRE       0.125000
@<TRIPOS>BOND
     1     1     2 1
     2     1    12 1
     3     1    16 1
     4     1    17 1
     5     2     3 1
     6     2    18 1
     7     2    19 1
     8     3     4 1
     9     3     5 2
    10     4    20 1
    11     4    21 1
    12     4    22 1
    13     5     6 1
    14     5    23 1
    15     6     7 1
    16     6    24 1
    17     6    25 1
    18     7     8 1
    19     7    26 1
    20     7    27 1
    21     8     9 1
    22     8    10 2
    23     9    28 1
    24     9    29 1
    25     9    30 1
    26    10    11 1
    27    10    31 1
    28    11    12 1
    29    11    32 1
    30    11    33 1
    31    12    13 1
    32    12    34 1
    33    13    14 1
    34    13    15 2
    35    14    35 1
    36    14    36 1
    37    14    37 1
    38    15    38 1
    39    15    39 1
@<TRIPOS>SUBSTRUCTURE
     1 CRE         1 TEMP              0 ****  ****    0 ROOT
