@<TRIPOS>MOLECULE
CRH
   52    51     1     0     0
SMALL
bcc


@<TRIPOS>ATOM
      1 C1          1.3750   -2.2000    0.0440 c2        1 CRH      0.305000
      2 C2          1.2940   -3.4540   -0.7650 c3        1 CRH     -0.268000
      3 C3          2.4490   -1.4880    3.9450 c2        1 CRH     -0.172000
      4 C4          1.9440   -2.0640    2.8530 c2        1 CRH     -0.159000
      5 C5         -2.8400   -1.4160    3.8480 ca        1 CRH     -0.162000
      6 C6         -4.1430   -1.2660    3.4620 ca        1 CRH     -0.082000
      7 C7         -4.4920   -1.3030    2.0880 ca        1 CRH     -0.260000
      8 C8         -3.4980   -1.4920    1.1280 ca        1 CRH      0.194000
      9 C9         -1.0430   -1.8310    0.5740 ca        1 CRH      0.173000
     10 C10        -0.4650   -1.7390    3.3100 ca        1 CRH     -0.174000
     11 C11        -1.8040   -1.5950    2.8810 ca        1 CRH      0.045000
     12 C12        -2.1180   -1.6380    1.4960 ca        1 CRH     -0.148000
     13 C13         0.2730   -1.9850    1.0160 ca        1 CRH     -0.203000
     14 C14         0.5640   -1.9260    2.4050 ca        1 CRH      0.054000
     15 C15        -5.1770   -3.3160    1.3290 c1        1 CRH     -0.171000
     16 O1          2.3120   -1.4020   -0.0760 o         1 CRH     -0.316000
     17 O8         -3.8260   -1.5260   -0.2000 oh        1 CRH     -0.306000
     18 O9         -1.2090   -1.9030   -0.7850 oh        1 CRH     -0.267000
     19 C1'         4.1010    1.4210    0.5120 c2        1 CRH     -0.371000
     20 C2'         4.0040    2.8200    0.1410 c2        1 CRH      0.250000
     21 C3'         2.8450    3.1940   -0.7680 c3        1 CRH     -0.005000
     22 C4'         5.0390    0.9040    1.3410 c2        1 CRH      0.117000
     23 C4M         3.1580    2.7920   -2.1990 c3        1 CRH     -0.240000
     24 O1'         5.5110   -0.8210    2.9880 oh        1 CRH     -0.325000
     25 O2'         4.8020    3.6980    0.5200 o         1 CRH     -0.358000
     26 O3'         2.5520    4.5770   -0.6830 oh        1 CRH     -0.318000
     27 O4'         6.0330    1.5940    1.9670 oh        1 CRH     -0.272000
     28 H21         1.1950   -4.3370   -0.0870 hc        1 CRH      0.110667
     29 H22         2.2050   -3.5750   -1.3980 hc        1 CRH      0.110667
     30 H3          0.3920   -3.4090   -1.4250 hc        1 CRH      0.110667
     31 H41         1.8560   -0.8570    4.6210 ha        1 CRH      0.127500
     32 H42         2.5900   -2.6740    2.1950 ha        1 CRH      0.132000
     33 H5         -2.5590   -1.3930    4.9120 ha        1 CRH      0.143000
     34 H6         -4.9400   -1.1080    4.2040 ha        1 CRH      0.141000
     35 H10        -0.2500   -1.7000    4.3890 ha        1 CRH      0.145000
     36 H151       -5.5160   -1.0340    1.7800 ha        1 CRH      0.168000
     37 H152       -4.3920   -3.9800    1.7130 ha        1 CRH      0.029500
     38 H153       -6.0760   -3.3270    1.9610 ha        1 CRH      0.029500
     39 HO8        -4.6610   -2.0500   -0.2770 ho        1 CRH      0.288000
     40 HO9        -2.0680   -1.5400   -1.0450 ho        1 CRH      0.259000
     41 H1'         3.5130   -1.5910    4.2090 ha        1 CRH      0.127500
     42 H3'         3.3430    0.7410    0.0820 ha        1 CRH      0.180000
     43 H4'         1.9030    2.6860   -0.4110 h1        1 CRH      0.134000
     44 H1'1        4.0900   -1.0330    1.5630 h1        1 CRH      0.118000
     45 H1'2        6.3380   -0.3470    3.1450 ho        1 CRH      0.218000
     46 H1'3        5.8250   -1.0480    0.9370 h1        1 CRH      0.118000
     47 H4'1        3.3080    1.6890   -2.2620 hc        1 CRH      0.089333
     48 H4'2        2.3090    3.0860   -2.8620 hc        1 CRH      0.089333
     49 H4'3        4.0800    3.3080   -2.5580 hc        1 CRH      0.089333
     50 HO3         3.3920    5.0560   -0.7200 ho        1 CRH      0.215000
     51 HO4         5.9600    2.5450    1.7670 ho        1 CRH      0.267000
     52 C1M         5.1110   -0.5650    1.6600 c3        1 CRH      0.002000
@<TRIPOS>BOND
     1    1    2 1   
     2    1   13 1   
     3    1   16 1   
     4    2   28 1   
     5    2   29 1   
     6    2   30 1   
     7    3    4 1   
     8    3   31 1   
     9    3   41 1   
    10    4   14 1   
    11    4   32 1   
    12    5    6 1   
    13    5   11 1   
    14    5   33 1   
    15    6    7 1   
    16    6   34 1   
    17    7    8 1   
    18    7   36 1   
    19    8   12 1   
    20    8   17 1   
    21    9   12 1   
    22    9   13 1   
    23    9   18 1   
    24   10   11 1   
    25   10   14 1   
    26   10   35 1   
    27   11   12 1   
    28   13   14 1   
    29   15   37 1   
    30   15   38 1   
    31   17   39 1   
    32   18   40 1   
    33   19   20 1   
    34   19   22 1   
    35   19   42 1   
    36   20   21 1   
    37   20   25 1   
    38   21   23 1   
    39   21   26 1   
    40   21   43 1   
    41   22   27 1   
    42   22   52 1   
    43   23   47 1   
    44   23   48 1   
    45   23   49 1   
    46   24   45 1   
    47   24   52 1   
    48   26   50 1   
    49   27   51 1   
    50   44   52 1   
    51   46   52 1   
@<TRIPOS>SUBSTRUCTURE
     1 CRH         1 TEMP              0 ****  ****    0 ROOT
