@<TRIPOS>MOLECULE
molecule
   52    54     1     0     0
SMALL
bcc


@<TRIPOS>ATOM
      1 C1           0.0000     0.0000     0.0000 c          1 CRH       0.588700
      2 C2           1.5130     0.0000     0.0000 c3         1 CRH      -0.181400
      3 C3           1.9720     0.0000     1.4620 c3         1 CRH      -0.057700
      4 C4           1.5270    -1.2950     2.1350 c3         1 CRH      -0.031100
      5 C5          -2.6320    -3.3840     3.6930 ca         1 CRH      -0.140000
      6 C6          -3.9710    -3.6070     3.5740 ca         1 CRH      -0.089000
      7 C7          -4.7080    -3.0180     2.5520 ca         1 CRH      -0.133300
      8 C8          -4.1000    -2.1900     1.6340 ca         1 CRH       0.140100
      9 C9          -2.0590    -1.1000     0.8210 ca         1 CRH       0.211100
     10 C10         -0.5900    -2.3110     2.8800 ca         1 CRH      -0.146000
     11 C11         -1.9730    -2.5490     2.7770 ca         1 CRH       0.013000
     12 C12         -2.7170    -1.9410     1.7360 ca         1 CRH      -0.101000
     13 C13         -0.6840    -0.8840     0.9540 ca         1 CRH      -0.219600
     14 C14          0.0440    -1.5030     1.9890 ca         1 CRH      -0.026300
     15 C15         -6.1870    -3.2890     2.4490 c3         1 CRH      -0.045800
     16 O1          -0.6270     0.7060    -0.7620 o          1 CRH      -0.514100
     17 O8          -4.8270    -1.6180     0.6410 oh         1 CRH      -0.509100
     18 O9          -2.7490    -0.5050    -0.1790 oh         1 CRH      -0.498100
     19 C1'          3.4980     0.1070     1.5190 c3         1 CRH       0.041100
     20 C2'          3.9280     1.4450     0.9770 c          1 CRH       0.519100
     21 C3'          4.2230     1.6050    -0.4920 c3         1 CRH       0.058100
     22 C4'          5.7020     1.3120    -0.7490 c3         1 CRH       0.136100
     23 C4M          6.0010     1.4740    -2.2410 c3         1 CRH      -0.129100
     24 O1'          3.9350    -0.0230     2.8720 os         1 CRH      -0.376600
     25 O2'          4.0380     2.3900     1.7210 o          1 CRH      -0.436100
     26 O3'          3.9250     2.9420    -0.8950 oh         1 CRH      -0.558800
     27 O4'          6.5060     2.2250    -0.0020 oh         1 CRH      -0.576800
     28 H21          1.8790     0.8890    -0.4990 hc         1 CRH       0.068700
     29 H22          1.8800    -0.8880    -0.5000 hc         1 CRH       0.068700
     30 H3           1.5280     0.8430     1.9770 hc         1 CRH       0.087700
     31 H41          1.7760    -1.2490     3.1880 hc         1 CRH       0.065200
     32 H42          2.0480    -2.1280     1.6780 hc         1 CRH       0.065200
     33 H5          -2.0750    -3.8520     4.4960 ha         1 CRH       0.138000
     34 H6          -4.4690    -4.2540     4.2850 ha         1 CRH       0.135000
     35 H10         -0.0250    -2.7700     3.6830 ha         1 CRH       0.139000
     36 H151        -6.5260    -3.7870     3.3490 hc         1 CRH       0.047033
     37 H152        -6.3790    -3.9220     1.5920 hc         1 CRH       0.047033
     38 H153        -6.7180    -2.3520     2.3340 hc         1 CRH       0.047033
     39 HO8         -5.0650    -2.2760     0.0080 ho         1 CRH       0.429000
     40 HO9         -3.0780     0.3270     0.1170 ho         1 CRH       0.446000
     41 H1'          3.9370    -0.6820     0.9210 h1         1 CRH       0.046700
     42 H3'          3.6140     0.9130    -1.0600 h1         1 CRH       0.048700
     43 H4'          5.9280     0.2980    -0.4440 h1         1 CRH       0.024700
     44 H1'1         5.4080    -1.1280     1.9460 h1         1 CRH       0.036367
     45 H1'2         5.4730    -1.1070     3.7140 h1         1 CRH       0.036367
     46 H1'3         5.9660     0.3210     2.7930 h1         1 CRH       0.036367
     47 H4'1         5.2590     0.9370    -2.8190 hc         1 CRH       0.046700
     48 H4'2         6.9850     1.0750    -2.4580 hc         1 CRH       0.046700
     49 H4'3         5.9720     2.5250    -2.5030 hc         1 CRH       0.046700
     50 HO3          3.4070     2.9250    -1.6830 ho         1 CRH       0.401000
     51 HO4          7.4130     1.9750    -0.0710 ho         1 CRH       0.400000
     52 C1M          5.2770    -0.5140     2.8290 c3         1 CRH       0.107700
@<TRIPOS>BOND
     1     1     2 1
     2     1    13 1
     3     1    16 2
     4     2     3 1
     5     2    28 1
     6     2    29 1
     7     3     4 1
     8     3    19 1
     9     3    30 1
    10     4    14 1
    11     4    31 1
    12     4    32 1
    13     5     6 ar
    14     5    11 ar
    15     5    33 1
    16     6     7 ar
    17     6    34 1
    18     7     8 ar
    19     7    15 1
    20     8    12 ar
    21     8    17 1
    22     9    12 ar
    23     9    13 ar
    24     9    18 1
    25    10    11 ar
    26    10    14 ar
    27    10    35 1
    28    11    12 ar
    29    13    14 ar
    30    15    36 1
    31    15    37 1
    32    15    38 1
    33    17    39 1
    34    18    40 1
    35    19    20 1
    36    19    24 1
    37    19    41 1
    38    20    21 1
    39    20    25 2
    40    21    22 1
    41    21    26 1
    42    21    42 1
    43    22    23 1
    44    22    27 1
    45    22    43 1
    46    52    24 1
    47    52    44 1
    48    52    45 1
    49    52    46 1
    50    23    47 1
    51    23    48 1
    52    23    49 1
    53    26    50 1
    54    27    51 1
@<TRIPOS>SUBSTRUCTURE
     1 CRH         1 TEMP              0 ****  ****    0 ROOT
