@<TRIPOS>MOLECULE
CRI
   54    56     1     0     0
SMALL
bcc


@<TRIPOS>ATOM
      1 N            0.0000     0.0000     0.0000 ns         1 CRI      -0.060400
      2 OH           1.4150     0.0000     0.0000 oh         1 CRI      -0.437100
      3 O           -0.0670    -0.0010     2.2190 o          1 CRI      -0.621100
      4 C           -0.6750     0.0000     1.1660 c          1 CRI       0.595700
      5 C1          -2.8510     0.0020    -0.0430 ca         1 CRI      -0.058500
      6 C2          -2.1520     0.0010     1.1660 ca         1 CRI      -0.153600
      7 C3          -2.8510     0.0000     2.3750 ca         1 CRI      -0.058500
      8 C4          -4.2280     0.0010     2.3750 ca         1 CRI      -0.100000
      9 C5          -4.9240     0.0040     1.1650 cp         1 CRI      -0.007000
     10 C6          -4.2260    -0.0010    -0.0410 ca         1 CRI      -0.100000
     11 C11         -6.4070     0.0050     1.1650 cp         1 CRI      -0.031000
     12 C12         -7.1030     0.7790     2.0910 ca         1 CRI      -0.076000
     13 C13         -8.4910     0.7820     2.0910 ca         1 CRI      -0.088400
     14 C14         -9.1890     0.0140     1.1720 ca         1 CRI      -0.125000
     15 C15         -8.4960    -0.7640     0.2420 ca         1 CRI      -0.129600
     16 C16         -7.1040    -0.7720     0.2440 ca         1 CRI      -0.050000
     17 C20         -9.2410    -1.5830    -0.7380 c          1 CRI       0.607700
     18 O21         -8.8900    -2.7230    -0.9680 o          1 CRI      -0.638100
     19 N22        -10.3090    -1.0660    -1.3770 n          1 CRI      -0.161800
     20 C23        -11.1290    -1.9160    -2.2420 c3         1 CRI       0.083800
     21 C27        -10.6490     0.3490    -1.2060 c3         1 CRI       0.083800
     22 N31         -9.1870     1.5620     3.0210 ns         1 CRI      -0.043100
     23 C33         -8.6800     2.7430     3.4250 c          1 CRI       0.589700
     24 O34         -7.6840     3.1910     2.8900 o          1 CRI      -0.635100
     25 C35         -8.8110     4.7170     4.9370 ca         1 CRI      -0.052000
     26 C36         -9.4260     5.4130     5.9560 ca         1 CRI      -0.112500
     27 C37        -10.5590     4.9020     6.5630 ca         1 CRI      -0.060300
     28 C38        -11.0830     3.6880     6.1520 ca         1 CRI      -0.112500
     29 C39        -10.4800     2.9850     5.1280 ca         1 CRI      -0.052000
     30 C40         -9.3340     3.4930     4.5170 ca         1 CRI      -0.174600
     31 HN          -0.5000    -0.0060    -0.8670 hn         1 CRI       0.160500
     32 HO1          1.7300    -0.0090    -0.8890 ho         1 CRI       0.391000
     33 H7          -2.3100    -0.0020    -0.9820 ha         1 CRI       0.113500
     34 H8          -2.3090    -0.0020     3.3130 ha         1 CRI       0.113500
     35 H9          -4.7700     0.0030     3.3120 ha         1 CRI       0.112500
     36 H10         -4.7680     0.0000    -0.9790 ha         1 CRI       0.112500
     37 H17         -6.5600     1.3810     2.8100 ha         1 CRI       0.146000
     38 H18        -10.2720     0.0200     1.1740 ha         1 CRI       0.117000
     39 H19         -6.5640    -1.3740    -0.4760 ha         1 CRI       0.125000
     40 H24        -10.5760    -2.1540    -3.1430 h1         1 CRI       0.011867
     41 H25        -12.0400    -1.3930    -2.5040 h1         1 CRI       0.011867
     42 H26        -11.3760    -2.8320    -1.7180 h1         1 CRI       0.011867
     43 H28        -11.1530     0.7100    -2.0940 h1         1 CRI       0.011867
     44 H29        -11.3010     0.4630    -0.3480 h1         1 CRI       0.011867
     45 H30         -9.7430     0.9220    -1.0480 h1         1 CRI       0.011867
     46 H32        -10.0490     1.2290     3.4070 hn         1 CRI       0.175500
     47 H43         -7.9240     5.1200     4.4630 ha         1 CRI       0.113000
     48 H44         -9.0210     6.3640     6.2820 ha         1 CRI       0.110500
     49 H41        -11.9720     3.2930     6.6290 ha         1 CRI       0.110500
     50 H42        -10.8910     2.0360     4.8070 ha         1 CRI       0.113000
     51 H46        -10.5640     6.4510     8.0230 hc         1 CRI       0.010700
     52 H47        -11.4480     4.9940     8.4950 hc         1 CRI       0.010700
     53 H48        -12.1460     6.1070     7.3110 hc         1 CRI       0.010700
     54 C45        -11.2260     5.6670     7.6760 c3         1 CRI       0.059200
@<TRIPOS>BOND
     1     1     2 1   
     2     1     4 1   
     3     1    31 1   
     4     2    32 1   
     5     3     4 2   
     6     4     6 1   
     7     5     6 ar  
     8     5    10 ar  
     9     5    33 1   
    10     6     7 ar  
    11     7     8 ar  
    12     7    34 1   
    13     8     9 ar  
    14     8    35 1   
    15     9    10 ar  
    16     9    11 1   
    17    10    36 1   
    18    11    12 ar  
    19    11    16 ar  
    20    12    13 ar  
    21    12    37 1   
    22    13    14 ar  
    23    13    22 1   
    24    14    15 ar  
    25    14    38 1   
    26    15    16 ar  
    27    15    17 1   
    28    16    39 1   
    29    17    18 2   
    30    17    19 1   
    31    19    20 1   
    32    19    21 1   
    33    20    40 1   
    34    20    41 1   
    35    20    42 1   
    36    21    43 1   
    37    21    44 1   
    38    21    45 1   
    39    22    23 1   
    40    22    46 1   
    41    23    24 2   
    42    23    30 1   
    43    25    26 ar  
    44    25    30 ar  
    45    25    47 1   
    46    26    27 ar  
    47    26    48 1   
    48    27    28 ar  
    49    27    54 1   
    50    28    29 ar  
    51    28    49 1   
    52    29    30 ar  
    53    29    50 1   
    54    51    54 1   
    55    52    54 1   
    56    53    54 1   
@<TRIPOS>SUBSTRUCTURE
     1 CRI         1 TEMP              0 ****  ****    0 ROOT
