@<TRIPOS>MOLECULE
molecule
   55    57     1     0     0
SMALL
bcc


@<TRIPOS>ATOM
      1 C2           0.0000     0.0000     0.0000 ca         1 CRJ       0.150900
      2 C4           0.0010    -0.0170     2.3950 ca         1 CRJ      -0.068500
      3 C5           1.3840    -0.0120     2.3950 ca         1 CRJ      -0.136300
      4 C6           2.0750     0.0000     1.1970 ca         1 CRJ      -0.068500
      5 C1           1.3850     0.0000     0.0000 ca         1 CRJ      -0.171500
      6 C3          -0.6910    -0.0110     1.1990 ca         1 CRJ      -0.171500
      7 C8           2.1380    -0.0180     3.6990 c3         1 CRJ       0.162800
      8 F7          -0.6760     0.0060    -1.1700 f          1 CRJ      -0.137900
      9 N9           3.2990     0.8770     3.5980 n7         1 CRJ      -0.771200
     10 C10          2.6150    -1.4390     4.0040 c3         1 CRJ       0.617900
     11 C11          3.6190     1.3070     4.9660 c3         1 CRJ       0.082500
     12 C12          2.7050     2.4360     5.3660 c          1 CRJ       0.634100
     13 C13          5.0730     1.7830     5.0230 c3         1 CRJ      -0.201600
     14 S14          6.1810     0.3800     4.7120 s6         1 CRJ       1.120000
     15 C15          7.7750     1.1880     5.0210 c3         1 CRJ      -0.233600
     16 N16          2.8180     2.9940     6.5880 ns         1 CRJ      -0.546900
     17 O17          1.8680     2.8430     4.5880 o          1 CRJ      -0.584100
     18 C18          8.9060     0.1780     4.8170 c3         1 CRJ       0.125700
     19 C19         10.2670     0.8220     5.1670 c3         1 CRJ      -0.086400
     20 C20         11.2020     0.1650     4.1260 c3         1 CRJ      -0.173400
     21 C21         10.2820    -0.2180     2.9880 c          1 CRJ       0.705500
     22 N22          9.0020    -0.1990     3.4020 ns         1 CRJ      -0.601900
     23 O23         10.6450    -0.5030     1.8670 o          1 CRJ      -0.616500
     24 C24          1.9290     4.0910     6.9760 cx         1 CRJ       0.112500
     25 C25          2.1070     4.6830     8.3760 cx         1 CRJ      -0.116900
     26 C26          2.5530     5.4780     7.1480 cx         1 CRJ      -0.116900
     27 O27          5.9630    -0.6100     5.7080 o          1 CRJ      -0.591800
     28 O28          6.1010     0.0230     3.3400 o          1 CRJ      -0.591800
     29 F29          3.4570    -1.8800     2.9780 f          1 CRJ      -0.217300
     30 F30          3.3160    -1.4460     5.2160 f          1 CRJ      -0.217300
     31 F31          1.5100    -2.2920     4.1000 f          1 CRJ      -0.217300
     32 N33         -0.4960     3.9510     6.0240 n1         1 CRJ      -0.334800
     33 C32          0.5610     4.0230     6.4350 c1         1 CRJ       0.248700
     34 H4          -0.5400    -0.0260     3.3340 ha         1 CRJ       0.153000
     35 H6           3.1580     0.0020     1.1970 ha         1 CRJ       0.153000
     36 H1           1.9270     0.0090    -0.9380 ha         1 CRJ       0.150500
     37 H3          -1.7740    -0.0130     1.2000 ha         1 CRJ       0.150500
     38 H8           1.4870     0.3230     4.4950 h1         1 CRJ       0.076700
     39 HN9          3.0570     1.6750     3.0450 hn         1 CRJ       0.405800
     40 H11          3.4850     0.4750     5.6470 h1         1 CRJ       0.114700
     41 H131         5.2800     2.1960     6.0030 h1         1 CRJ       0.098700
     42 H132         5.2340     2.5440     4.2690 h1         1 CRJ       0.098700
     43 H151         7.8010     1.5590     6.0380 h1         1 CRJ       0.103700
     44 H152         7.9000     2.0140     4.3320 h1         1 CRJ       0.103700
     45 HN16         3.4760     2.6260     7.2460 hn         1 CRJ       0.327500
     46 H18          8.7430    -0.7030     5.4260 h1         1 CRJ       0.071700
     47 H191        10.2310     1.8960     5.0300 hc         1 CRJ       0.060700
     48 H192        10.5680     0.5620     6.1750 hc         1 CRJ       0.060700
     49 H201        11.9470     0.8750     3.7870 hc         1 CRJ       0.079200
     50 H202        11.6730    -0.7170     4.5440 hc         1 CRJ       0.079200
     51 HN22         8.2170    -0.4150     2.8200 hn         1 CRJ       0.362500
     52 H251         2.9040     4.2510     8.9680 hc         1 CRJ       0.090450
     53 H252         1.2000     5.0320     8.8550 hc         1 CRJ       0.090450
     54 H261         3.6230     5.5320     6.9890 hc         1 CRJ       0.090450
     55 H262         1.9190     6.3130     6.8760 hc         1 CRJ       0.090450
@<TRIPOS>BOND
     1     1     5 ar
     2     1     6 ar
     3     1     8 1
     4     2     3 ar
     5     2     6 ar
     6     2    34 1
     7     3     4 ar
     8     3     7 1
     9     4     5 ar
    10     4    35 1
    11     5    36 1
    12     6    37 1
    13     7     9 1
    14     7    10 1
    15     7    38 1
    16     9    11 1
    17     9    39 1
    18    10    29 1
    19    10    30 1
    20    10    31 1
    21    11    12 1
    22    11    13 1
    23    11    40 1
    24    12    16 1
    25    12    17 2
    26    13    14 1
    27    13    41 1
    28    13    42 1
    29    14    15 1
    30    14    27 2
    31    14    28 2
    32    15    18 1
    33    15    43 1
    34    15    44 1
    35    16    24 1
    36    16    45 1
    37    18    19 1
    38    18    22 1
    39    18    46 1
    40    19    20 1
    41    19    47 1
    42    19    48 1
    43    20    21 1
    44    20    49 1
    45    20    50 1
    46    21    22 1
    47    21    23 2
    48    22    51 1
    49    24    25 1
    50    24    26 1
    51    24    33 1
    52    25    26 1
    53    25    52 1
    54    25    53 1
    55    26    54 1
    56    26    55 1
    57    32    33 3
@<TRIPOS>SUBSTRUCTURE
     1 CRJ         1 TEMP              0 ****  ****    0 ROOT
