@<TRIPOS>MOLECULE
molecule
   58    59     1     0     0
SMALL
bcc


@<TRIPOS>ATOM
      1 N1           0.0000     0.0000     0.0000 ns         1 CRL      -0.593900
      2 C1          -0.7390    -1.1750     0.0730 c          1 CRL       0.806100
      3 O1          -0.1940    -2.2820     0.1430 o          1 CRL      -0.635100
      4 N2          -2.1350    -1.0130     0.0560 n          1 CRL      -0.517800
      5 C2          -2.8590     0.2630    -0.0240 c3         1 CRL       0.078000
      6 C3          -4.0740     0.2560     0.8970 c3         1 CRL       0.116900
      7 O2          -4.8970    -0.8830     0.6410 os         1 CRL      -0.408600
      8 C4          -4.1800    -2.0930     0.8970 c3         1 CRL       0.116900
      9 C5          -2.9890    -2.1990    -0.0420 c3         1 CRL       0.078000
     10 C6           1.4460     0.0000     0.0000 c3         1 CRL       0.085700
     11 C7           1.8940     0.0000     1.4590 c          1 CRL       0.660100
     12 O3           1.2840     0.5920     2.3470 o          1 CRL      -0.570100
     13 N3           3.0830    -0.6930     1.6390 ns         1 CRL      -0.599900
     14 C8           3.7500    -0.7980     2.9230 c3         1 CRL       0.201500
     15 C9           2.8130    -1.4600     3.8570 c1         1 CRL       0.194700
     16 N4           2.0640    -1.9660     4.5850 n1         1 CRL      -0.328800
     17 C10          4.0820     0.6080     3.4710 c3         1 CRL      -0.068900
     18 C11          5.0740     1.3880     2.6180 c3         1 CRL      -0.211600
     19 S1           6.6200     0.5250     2.4490 s6         1 CRL       1.069000
     20 O4           7.3610     1.1490     1.3700 o          1 CRL      -0.594300
     21 O5           7.2070     0.3780     3.7660 o          1 CRL      -0.594300
     22 C12          6.0910    -1.0770     1.8890 c3         1 CRL      -0.211600
     23 C13          5.0200    -1.6690     2.7980 c3         1 CRL      -0.068900
     24 C14          2.0260     1.2150    -0.7360 c3         1 CRL      -0.266400
     25 Si1          1.6570     1.3350    -2.5700 Si         1 CRL       0.519000
     26 C15          2.2420    -0.2250    -3.4290 c3         1 CRL      -0.266100
     27 C16         -0.1910     1.5340    -2.8250 c3         1 CRL      -0.266100
     28 C17          2.5490     2.8180    -3.2930 c3         1 CRL      -0.266100
     29 HN1         -0.4840     0.8740    -0.0530 hn         1 CRL       0.323500
     30 H21         -2.1950     1.0670     0.2710 h1         1 CRL       0.056200
     31 H22         -3.1870     0.4220    -1.0440 h1         1 CRL       0.056200
     32 H31         -4.6520     1.1560     0.7290 h1         1 CRL       0.057950
     33 H32         -3.7390     0.2280     1.9270 h1         1 CRL       0.057950
     34 H41         -3.8290    -2.0910     1.9220 h1         1 CRL       0.057950
     35 H42         -4.8370    -2.9390     0.7380 h1         1 CRL       0.057950
     36 H51         -2.4090    -3.0760     0.2190 h1         1 CRL       0.056200
     37 H52         -3.3480    -2.2940    -1.0600 h1         1 CRL       0.056200
     38 H6           1.7990    -0.9050    -0.4790 h1         1 CRL       0.081700
     39 HN3          3.4990    -1.1430     0.8480 hn         1 CRL       0.324500
     40 H101         3.1620     1.1780     3.5340 hc         1 CRL       0.083700
     41 H102         4.4950     0.5000     4.4660 hc         1 CRL       0.083700
     42 H111         5.2580     2.3500     3.0820 h1         1 CRL       0.108950
     43 H112         4.6480     1.5410     1.6340 h1         1 CRL       0.108950
     44 H121         6.9460    -1.7430     1.8730 h1         1 CRL       0.108950
     45 H122         5.6900    -0.9850     0.8870 h1         1 CRL       0.108950
     46 H131         5.4440    -1.8030     3.7860 hc         1 CRL       0.083700
     47 H132         4.7350    -2.6380     2.4060 hc         1 CRL       0.083700
     48 H141         1.6450     2.1100    -0.2590 hc         1 CRL       0.062700
     49 H142         3.1020     1.1990    -0.6120 hc         1 CRL       0.062700
     50 H151         3.2400    -0.4730    -3.0890 hc         1 CRL       0.050922
     51 H152         1.5680    -1.0410    -3.1960 hc         1 CRL       0.050922
     52 H153         2.2560    -0.0640    -4.5010 hc         1 CRL       0.050922
     53 H161        -0.5940     2.1780    -2.0530 hc         1 CRL       0.050922
     54 H162        -0.6690     0.5630    -2.7720 hc         1 CRL       0.050922
     55 H163        -0.3760     1.9750    -3.7970 hc         1 CRL       0.050922
     56 H171         2.3690     2.8630    -4.3600 hc         1 CRL       0.050922
     57 H172         3.6120     2.7240    -3.1100 hc         1 CRL       0.050922
     58 H173         2.1810     3.7240    -2.8260 hc         1 CRL       0.050922
@<TRIPOS>BOND
     1     1     2 1
     2     1    10 1
     3     1    29 1
     4     2     3 2
     5     2     4 1
     6     4     5 1
     7     4     9 1
     8     5     6 1
     9     5    30 1
    10     5    31 1
    11     6     7 1
    12     6    32 1
    13     6    33 1
    14     7     8 1
    15     8     9 1
    16     8    34 1
    17     8    35 1
    18     9    36 1
    19     9    37 1
    20    10    11 1
    21    10    24 1
    22    10    38 1
    23    11    12 2
    24    11    13 1
    25    13    14 1
    26    13    39 1
    27    14    15 1
    28    14    17 1
    29    14    23 1
    30    15    16 3
    31    17    18 1
    32    17    40 1
    33    17    41 1
    34    18    19 1
    35    18    42 1
    36    18    43 1
    37    19    20 2
    38    19    21 2
    39    19    22 1
    40    22    23 1
    41    22    44 1
    42    22    45 1
    43    23    46 1
    44    23    47 1
    45    24    25 1
    46    24    48 1
    47    24    49 1
    48    25    26 1
    49    25    27 1
    50    25    28 1
    51    26    50 1
    52    26    51 1
    53    26    52 1
    54    27    53 1
    55    27    54 1
    56    27    55 1
    57    28    56 1
    58    28    57 1
    59    28    58 1
@<TRIPOS>SUBSTRUCTURE
     1 CRL         1 TEMP              0 ****  ****    0 ROOT
