@<TRIPOS>MOLECULE
CRM
   44    45     1     0     0
SMALL
bcc


@<TRIPOS>ATOM
      1 C2          0.6150   -0.5800   -0.4200 c         1 CRM      0.816500
      2 O15         0.2610   -0.7210   -1.6140 o         1 CRM     -0.667500
      3 N3          1.9820   -0.4220   -0.1260 n         1 CRM     -0.486100
      4 C4          2.4330   -0.2510    1.1870 cc        1 CRM      0.207200
      5 N10         3.7940   -0.0700    1.4530 n         1 CRM     -0.372000
      6 C17         4.7770   -0.0900    0.3910 c3        1 CRM      0.059000
      7 C18         4.9900   -1.4770   -0.2630 c3        1 CRM      0.145100
      8 C20         5.1520   -1.3710   -1.7970 c3        1 CRM      0.104100
      9 C22         4.9000   -2.7270   -2.4850 c3        1 CRM      0.106100
     10 C25         5.5580   -2.7530   -3.8700 c3        1 CRM      0.088400
     11 O26         5.2480   -4.0200   -4.4270 oh        1 CRM     -0.607800
     12 O23         5.4520   -3.7430   -1.6650 oh        1 CRM     -0.608800
     13 O21         4.2000   -0.4260   -2.2650 oh        1 CRM     -0.611800
     14 O19         6.2040   -1.9630    0.2810 oh        1 CRM     -0.587800
     15 C9          4.2170    0.1300    2.8050 c         1 CRM      0.569200
     16 O16         5.4130    0.3630    3.0160 o         1 CRM     -0.578500
     17 C8          3.1520    0.0600    3.8660 cc        1 CRM      0.388300
     18 C11         3.7000    0.1940    5.2570 c3        1 CRM     -0.095700
     19 C12         2.6820    0.4470    6.3380 c3        1 CRM     -0.196400
     20 C13         3.3720    0.4220    7.7190 c         1 CRM      0.909600
     21 O28         3.0260    1.2960    8.5620 o         1 CRM     -0.846800
     22 O27         4.2330   -0.4780    7.9390 o         1 CRM     -0.846800
     23 N7          1.8910   -0.1170    3.5860 nd        1 CRM     -0.454300
     24 C5          1.5080   -0.2580    2.2590 cd        1 CRM     -0.108600
     25 C6          0.0650   -0.4270    1.9840 c         1 CRM      0.747700
     26 O14        -0.8520   -0.4470    2.8150 o         1 CRM     -0.574500
     27 N1         -0.3010   -0.5820    0.6280 n         1 CRM     -0.595500
     28 H3          2.6080   -0.3960   -0.9060 hn        1 CRM      0.369500
     29 H171        5.7710    0.2280    0.8340 h1        1 CRM      0.098700
     30 H172        4.4940    0.6670   -0.3930 h1        1 CRM      0.098700
     31 H18         4.1470   -2.1870   -0.0410 h1        1 CRM      0.059700
     32 H20         6.1920   -1.0100   -2.0300 h1        1 CRM      0.062700
     33 H22         3.7910   -2.8960   -2.5930 h1        1 CRM      0.067700
     34 H251        6.6700   -2.6310   -3.7760 h1        1 CRM      0.035200
     35 H252        5.1420   -1.9360   -4.5160 h1        1 CRM      0.035200
     36 H26         5.7320   -4.0870   -5.2570 ho        1 CRM      0.410000
     37 H23         5.3370   -4.5760   -2.1420 ho        1 CRM      0.431000
     38 H21         4.2390   -0.4240   -3.2280 ho        1 CRM      0.413000
     39 H19         6.2330   -2.9170    0.1310 ho        1 CRM      0.425000
     40 H111        4.2610   -0.7530    5.5030 hc        1 CRM      0.082200
     41 H112        4.4550    1.0280    5.2460 hc        1 CRM      0.082200
     42 H121        2.1800    1.4340    6.1880 hc        1 CRM      0.038200
     43 H122        1.8950   -0.3480    6.3380 hc        1 CRM      0.038200
     44 H1         -1.2630   -0.6970    0.3950 hn        1 CRM      0.349500
@<TRIPOS>BOND
     1    1    2 2   
     2    1    3 1   
     3    1   27 1   
     4    3    4 1   
     5    3   28 1   
     6    4    5 1   
     7    4   24 2   
     8    5    6 1   
     9    5   15 1   
    10    6    7 1   
    11    6   29 1   
    12    6   30 1   
    13    7    8 1   
    14    7   14 1   
    15    7   31 1   
    16    8    9 1   
    17    8   13 1   
    18    8   32 1   
    19    9   10 1   
    20    9   12 1   
    21    9   33 1   
    22   10   11 1   
    23   10   34 1   
    24   10   35 1   
    25   11   36 1   
    26   12   37 1   
    27   13   38 1   
    28   14   39 1   
    29   15   16 2   
    30   15   17 1   
    31   17   18 1   
    32   17   23 2   
    33   18   19 1   
    34   18   40 1   
    35   18   41 1   
    36   19   20 1   
    37   19   42 1   
    38   19   43 1   
    39   20   21 1   
    40   20   22 1   
    41   23   24 1   
    42   24   25 1   
    43   25   26 2   
    44   25   27 1   
    45   27   44 1   
@<TRIPOS>SUBSTRUCTURE
     1 CRM         1 TEMP              0 ****  ****    0 ROOT
