@<TRIPOS>MOLECULE
CRN
   19    18     1     0     0
SMALL
bcc


@<TRIPOS>ATOM
      1 O9          1.6180    0.3260    1.5000 o         1 CRN     -0.450000
      2 C7          2.3910   -0.0930    0.6470 c         1 CRN      0.633100
      3 O8          3.5090   -0.7590    1.0450 oh        1 CRN     -0.632100
      4 C5          2.1780    0.0190   -0.8430 c3        1 CRN      0.061800
      5 N1          3.3680    0.0980   -1.7310 n4        1 CRN     -0.715400
      6 C4          4.2700   -1.0730   -1.6420 c3        1 CRN      0.077100
      7 C2          4.1950    1.4200   -1.5410 c2        1 CRN      0.744100
      8 N6          4.5740    2.1320   -2.5350 n2        1 CRN     -0.744100
      9 N3          4.3900    1.7340   -0.1880 nh        1 CRN     -0.892800
     10 H51         1.5580    0.9530   -1.0130 hx        1 CRN      0.137700
     11 H52         1.5710   -0.8880   -1.1490 hx        1 CRN      0.137700
     12 H41         4.7980   -1.0920   -0.6500 hx        1 CRN      0.111700
     13 H42         5.0300   -1.0110   -2.4670 hx        1 CRN      0.111700
     14 H43         3.6710   -2.0190   -1.7490 hx        1 CRN      0.111700
     15 HN6         4.2870    1.9550   -3.4710 hn        1 CRN      0.463400
     16 HN31        4.7310    2.6630   -0.0250 hn        1 CRN      0.454800
     17 HN32        4.8370    1.0250    0.3590 hn        1 CRN      0.454800
     18 H11         2.9870    0.1180   -2.6890 hn        1 CRN      0.447800
     19 H33         3.5110   -0.8550    2.0170 ho        1 CRN      0.487000
@<TRIPOS>BOND
     1    1    2 2   
     2    2    3 1   
     3    2    4 1   
     4    3   19 1   
     5    4    5 1   
     6    4   10 1   
     7    4   11 1   
     8    5    6 1   
     9    5    7 1   
    10    5   18 1   
    11    6   12 1   
    12    6   13 1   
    13    6   14 1   
    14    7    8 2   
    15    7    9 1   
    16    8   15 1   
    17    9   16 1   
    18    9   17 1   
@<TRIPOS>SUBSTRUCTURE
     1 CRN         1 TEMP              0 ****  ****    0 ROOT
