@<TRIPOS>MOLECULE
CRP
   38    39     1     0     0
SMALL
bcc


@<TRIPOS>ATOM
      1 Cl0          0.0000     0.0000     0.0000 cl         1 CRP      -0.022400
      2 C1'          4.5010     0.0000     0.0000 ca         1 CRP      -0.103300
      3 C2'          3.8100     0.0000     1.1960 ca         1 CRP      -0.087000
      4 C3'          2.4280     0.0000     1.1970 ca         1 CRP      -0.091500
      5 C4'          1.7360    -0.0010     0.0000 ca         1 CRP      -0.034600
      6 C5'          2.4280    -0.0010    -1.1970 ca         1 CRP      -0.091500
      7 C6'          3.8100     0.0040    -1.1970 ca         1 CRP      -0.087000
      8 C7'          6.0070    -0.0000    -0.0010 c3         1 CRP       0.074000
      9 C8'          6.5180    -1.4430     0.0010 c3         1 CRP      -0.013100
     10 N            6.4950     0.6880    -1.1980 ns         1 CRP      -0.196900
     11 C            7.6730     1.3420    -1.1650 c          1 CRP       0.618100
     12 O            8.2840     1.4390    -0.1220 o          1 CRP      -0.632100
     13 C1           8.2300     1.9540    -2.4240 cx         1 CRP      -0.205000
     14 C2           9.7520     1.9930    -2.5780 cx         1 CRP       0.008800
     15 C3           8.9230     1.0180    -3.4160 cx         1 CRP      -0.080700
     16 C4           8.7650     1.3270    -4.9070 c3         1 CRP       0.025900
     17 C5           7.4320     3.1260    -2.9980 c3         1 CRP       0.006600
     18 C6           6.9370     4.0140    -1.8540 c3         1 CRP      -0.007100
     19 Cl1         10.4670     3.4170    -3.4210 cl         1 CRP      -0.015400
     20 Cl2         10.7410     1.3040    -1.2380 cl         1 CRP      -0.015400
     21 H3'          1.8870     0.0000     2.1360 ha         1 CRP       0.116000
     22 H5'          1.8860     0.0020    -2.1350 ha         1 CRP       0.116000
     23 H6'          4.3510     0.0040    -2.1350 ha         1 CRP       0.110500
     24 H7'          6.3680     0.5120     0.8830 h1         1 CRP       0.068700
     25 H8'1         5.9620    -2.0220     0.7290 hc         1 CRP       0.013367
     26 H8'2         6.3830    -1.8750    -0.9830 hc         1 CRP       0.013367
     27 H8'3         7.5700    -1.4530     0.2590 hc         1 CRP       0.013367
     28 HN           5.9790     0.6310    -2.0530 hn         1 CRP       0.185500
     29 H3           8.9820    -0.0160    -3.0990 hc         1 CRP       0.071700
     30 H41          9.3750     0.6430    -5.4840 hc         1 CRP       0.015033
     31 H42          7.7260     1.2120    -5.1910 hc         1 CRP       0.015033
     32 H43          9.0820     2.3450    -5.1000 hc         1 CRP       0.015033
     33 H51          8.0660     3.7060    -3.6570 hc         1 CRP       0.025700
     34 H52          6.5840     2.7460    -3.5550 hc         1 CRP       0.025700
     35 H61          6.0150     3.6080    -1.4560 hc         1 CRP       0.011700
     36 H62          7.6850     4.0470    -1.0720 hc         1 CRP       0.011700
     37 H63          6.7590     5.0160    -2.2260 hc         1 CRP       0.011700
     38 H2'          4.3520    -0.0010     2.1340 ha         1 CRP       0.110500
@<TRIPOS>BOND
     1     1     5 1   
     2     2     3 ar  
     3     2     7 ar  
     4     2     8 1   
     5     3     4 ar  
     6     3    38 1   
     7     4     5 ar  
     8     4    21 1   
     9     5     6 ar  
    10     6     7 ar  
    11     6    22 1   
    12     7    23 1   
    13     8     9 1   
    14     8    10 1   
    15     8    24 1   
    16     9    25 1   
    17     9    26 1   
    18     9    27 1   
    19    10    11 1   
    20    10    28 1   
    21    11    12 2   
    22    11    13 1   
    23    13    14 1   
    24    13    15 1   
    25    13    17 1   
    26    14    15 1   
    27    14    19 1   
    28    14    20 1   
    29    15    16 1   
    30    15    29 1   
    31    16    30 1   
    32    16    31 1   
    33    16    32 1   
    34    17    18 1   
    35    17    33 1   
    36    17    34 1   
    37    18    35 1   
    38    18    36 1   
    39    18    37 1   
@<TRIPOS>SUBSTRUCTURE
     1 CRP         1 TEMP              0 ****  ****    0 ROOT
