@<TRIPOS>MOLECULE
molecule
   42    46     1     0     0
SMALL
bcc


@<TRIPOS>ATOM
      1 C5           0.0000     0.0000     0.0000 ca         1 CRR      -0.059800
      2 C4           1.3940     0.0000     0.0000 ca         1 CRR      -0.039000
      3 C3           2.0750     0.0000     1.1910 ca         1 CRR      -0.192000
      4 C2           1.3840    -0.0010     2.3950 ca         1 CRR      -0.132500
      5 C1           0.0060    -0.0010     2.4130 ca         1 CRR      -0.169000
      6 C20         -0.7030    -0.0010     1.2170 ca         1 CRR      -0.045200
      7 N3          -2.0480    -0.0010     0.9160 na         1 CRR      -0.194400
      8 C19         -2.2290    -0.0010    -0.4350 cc         1 CRR      -0.127600
      9 C6          -1.0220    -0.0070    -1.0590 cd         1 CRR       0.053100
     10 C7          -0.7830    -0.0080    -2.5180 cd         1 CRR      -0.137800
     11 C8          -0.6540     1.1080    -3.3340 cc         1 CRR      -0.130400
     12 C36         -0.7310     2.5050    -2.8970 c          1 CRR       0.907200
     13 O39         -0.9240     2.7650    -1.7250 o          1 CRR      -0.852800
     14 O40         -0.5870     3.5020    -3.7950 o          1 CRR      -0.852800
     15 N1          -0.4410     0.6800    -4.6220 na         1 CRR      -0.103100
     16 C9          -0.4320    -0.6930    -4.6430 cc         1 CRR      -0.130400
     17 C35         -0.2350    -1.5320    -5.8270 c          1 CRR       0.907200
     18 O37         -0.2460    -2.7440    -5.7240 o          1 CRR      -0.852800
     19 O38         -0.0390    -0.9600    -7.0330 o          1 CRR      -0.852800
     20 C10         -0.6370    -1.1520    -3.3450 cd         1 CRR      -0.137800
     21 C11         -0.6950    -2.5630    -2.9120 cd         1 CRR       0.053100
     22 C12          0.4360    -3.3920    -2.4630 ca         1 CRR      -0.059800
     23 C13          1.8020    -3.1640    -2.3080 ca         1 CRR      -0.039000
     24 C14          2.6140    -4.1730    -1.8550 ca         1 CRR      -0.192000
     25 C15          2.0820    -5.4190    -1.5530 ca         1 CRR      -0.132500
     26 C16          0.7350    -5.6630    -1.7000 ca         1 CRR      -0.169000
     27 C17         -0.1050    -4.6530    -2.1570 ca         1 CRR      -0.045200
     28 N2          -1.4610    -4.5900    -2.4030 na         1 CRR      -0.194400
     29 C18         -1.8030    -3.3470    -2.8460 cc         1 CRR      -0.127600
     30 H4           1.9370     0.0010    -0.9370 ha         1 CRR       0.143000
     31 H3           3.1580     0.0000     1.1910 ha         1 CRR       0.105000
     32 H2           1.9330    -0.0010     3.3280 ha         1 CRR       0.095000
     33 H1          -0.5230    -0.0020     3.3580 ha         1 CRR       0.093500
     34 HN3         -2.7860     0.0030     1.5930 hn         1 CRR       0.265700
     35 H19         -3.1900     0.0030    -0.9350 h4         1 CRR       0.160000
     36 HN1         -0.3130     1.2730    -5.4170 hn         1 CRR       0.320700
     37 H13          2.2210    -2.1920    -2.5420 ha         1 CRR       0.143000
     38 H14          3.6760    -3.9970    -1.7330 ha         1 CRR       0.105000
     39 H15          2.7340    -6.2080    -1.1960 ha         1 CRR       0.095000
     40 H16          0.3310    -6.6390    -1.4620 ha         1 CRR       0.093500
     41 HN2         -2.1020    -5.3460    -2.2700 hn         1 CRR       0.265700
     42 H18         -2.8060    -3.0310    -3.1050 h4         1 CRR       0.160000
@<TRIPOS>BOND
     1     1     6 ar
     2     1     2 ar
     3     1     9 1
     4     2     3 ar
     5     2    30 1
     6     3     4 ar
     7     3    31 1
     8     4     5 ar
     9     4    32 1
    10     5     6 ar
    11     5    33 1
    12     6     7 1
    13     7     8 1
    14     7    34 1
    15     8     9 2
    16     8    35 1
    17     9    10 1
    18    10    11 2
    19    10    20 1
    20    11    12 1
    21    11    15 1
    22    12    13 1
    23    12    14 1
    24    15    16 1
    25    15    36 1
    26    16    20 2
    27    16    17 1
    28    17    18 1
    29    17    19 1
    30    20    21 1
    31    21    22 1
    32    21    29 2
    33    22    23 ar
    34    22    27 ar
    35    23    24 ar
    36    23    37 1
    37    24    25 ar
    38    24    38 1
    39    25    26 ar
    40    25    39 1
    41    26    27 ar
    42    26    40 1
    43    27    28 1
    44    28    29 1
    45    28    41 1
    46    29    42 1
@<TRIPOS>SUBSTRUCTURE
     1 CRR         1 TEMP              0 ****  ****    0 ROOT
