@<TRIPOS>MOLECULE
CRR
   42    46     1     0     0
SMALL
bcc


@<TRIPOS>ATOM
      1 C5         -0.3770   -0.1680    0.1340 ca        1 CRR     -0.066300
      2 C4          0.8210   -0.8600    0.2730 ca        1 CRR     -0.059000
      3 C3          1.3430   -1.0630    1.5490 ca        1 CRR     -0.180000
      4 C2          0.6810   -0.5910    2.6890 ca        1 CRR     -0.142500
      5 C1         -0.5240    0.0990    2.5930 ca        1 CRR     -0.174000
      6 C20        -1.0560    0.3160    1.3190 ca        1 CRR     -0.075700
      7 N3         -2.2710    0.9180    0.9280 na        1 CRR     -0.189900
      8 C19        -2.2740    0.9420   -0.4900 cc        1 CRR     -0.152100
      9 C6         -1.1800    0.2560   -1.0100 cd        1 CRR      0.034600
     10 C7         -0.8880    0.0950   -2.3990 cd        1 CRR     -0.141800
     11 C8         -1.0010    1.1100   -3.3760 cc        1 CRR     -0.114900
     12 C36        -1.4900    2.5420   -3.3270 c         1 CRR      0.931200
     13 O39        -2.3710    2.8770   -2.4830 o         1 CRR     -0.841550
     14 O40        -1.0150    3.3550   -4.1750 o         1 CRR     -0.841550
     15 N1         -0.5520    0.5760   -4.5830 na        1 CRR     -0.139100
     16 C9         -0.1740   -0.7470   -4.4250 cc        1 CRR     -0.114900
     17 C35         0.3240   -1.5470   -5.6170 c         1 CRR      0.931200
     18 O37        -0.5210   -2.1590   -6.3250 o         1 CRR     -0.841550
     19 O38         1.5650   -1.5260   -5.8670 o         1 CRR     -0.841550
     20 C10        -0.3810   -1.0940   -3.0700 cd        1 CRR     -0.141800
     21 C11        -0.2420   -2.3850   -2.4780 cd        1 CRR      0.034600
     22 C12         0.8310   -3.3630   -2.6690 ca        1 CRR     -0.066300
     23 C13         1.9930   -3.3830   -3.4330 ca        1 CRR     -0.059000
     24 C14         2.8190   -4.5040   -3.3680 ca        1 CRR     -0.180000
     25 C15         2.5000   -5.6020   -2.5600 ca        1 CRR     -0.142500
     26 C16         1.3430   -5.6210   -1.7880 ca        1 CRR     -0.174000
     27 C17         0.5050   -4.5020   -1.8380 ca        1 CRR     -0.075700
     28 N2         -0.6650   -4.2130   -1.1060 na        1 CRR     -0.189900
     29 C18        -1.1400   -2.9630   -1.5850 cc        1 CRR     -0.152100
     30 H4          1.3320   -1.2470   -0.6240 ha        1 CRR      0.184000
     31 H3          2.2900   -1.6080    1.6640 ha        1 CRR      0.110000
     32 H2          1.1220   -0.7670    3.6800 ha        1 CRR      0.094000
     33 H1         -1.0370    0.4630    3.4910 ha        1 CRR      0.102500
     34 HN3        -2.6050    1.7050    1.4270 hn        1 CRR      0.247700
     35 H19        -3.0490    1.4840   -1.0480 h4        1 CRR      0.192500
     36 HN1        -0.4720    1.1040   -5.4130 hn        1 CRR      0.303700
     37 H13         2.2220   -2.5340   -4.1100 ha        1 CRR      0.184000
     38 H14         3.7340   -4.5320   -3.9770 ha        1 CRR      0.110000
     39 H15         3.1720   -6.4710   -2.5410 ha        1 CRR      0.094000
     40 H16         1.0960   -6.4860   -1.1610 ha        1 CRR      0.102500
     41 HN2        -1.3140   -4.9390   -0.9280 hn        1 CRR      0.247700
     42 H18        -2.0600   -2.5380   -1.1830 h4        1 CRR      0.192500
@<TRIPOS>BOND
     1    1    2 ar  
     2    1    6 ar  
     3    1    9 1   
     4    2    3 ar  
     5    2   30 1   
     6    3    4 ar  
     7    3   31 1   
     8    4    5 ar  
     9    4   32 1   
    10    5    6 ar  
    11    5   33 1   
    12    6    7 1   
    13    7    8 1   
    14    7   34 1   
    15    8    9 2   
    16    8   35 1   
    17    9   10 1   
    18   10   11 2   
    19   10   20 1   
    20   11   12 1   
    21   11   15 1   
    22   12   13 1   
    23   12   14 1   
    24   15   16 1   
    25   15   36 1   
    26   16   17 1   
    27   16   20 2   
    28   17   18 1   
    29   17   19 1   
    30   20   21 1   
    31   21   22 1   
    32   21   29 2   
    33   22   23 ar  
    34   22   27 ar  
    35   23   24 ar  
    36   23   37 1   
    37   24   25 ar  
    38   24   38 1   
    39   25   26 ar  
    40   25   39 1   
    41   26   27 ar  
    42   26   40 1   
    43   27   28 1   
    44   28   29 1   
    45   28   41 1   
    46   29   42 1   
@<TRIPOS>SUBSTRUCTURE
     1 CRR         1 TEMP              0 ****  ****    0 ROOT
