@<TRIPOS>MOLECULE
molecule
   16    16     1     0     0
SMALL
bcc


@<TRIPOS>ATOM
      1 C1           0.0000     0.0000     0.0000 ca         1 CRS       0.107100
      2 C2           1.3870     0.0000     0.0000 ca         1 CRS      -0.153000
      3 C3           2.0760     0.0000     1.1970 ca         1 CRS      -0.070300
      4 C4           1.3850     0.0110     2.3940 ca         1 CRS      -0.137000
      5 C5           0.0020     0.0160     2.3960 ca         1 CRS      -0.112000
      6 C6          -0.6910     0.0110     1.2020 ca         1 CRS      -0.158000
      7 C7           3.5840    -0.0060     1.1980 c3         1 CRS      -0.047800
      8 O1          -0.6800    -0.0050    -1.1770 oh         1 CRS      -0.523100
      9 H2           1.9290    -0.0090    -0.9380 ha         1 CRS       0.140000
     10 H4           1.9280     0.0130     3.3310 ha         1 CRS       0.131000
     11 H5          -0.5380     0.0240     3.3350 ha         1 CRS       0.132000
     12 H6          -1.7740     0.0130     1.2040 ha         1 CRS       0.139000
     13 H71          3.9410    -0.9410     0.7850 hc         1 CRS       0.044367
     14 H72          3.9440     0.1020     2.2140 hc         1 CRS       0.044367
     15 H73          3.9480     0.8180     0.5970 hc         1 CRS       0.044367
     16 HO1         -0.8540    -0.8950    -1.4350 ho         1 CRS       0.418000
@<TRIPOS>BOND
     1     1     2 ar
     2     1     6 ar
     3     1     8 1
     4     2     3 ar
     5     2     9 1
     6     3     4 ar
     7     3     7 1
     8     4     5 ar
     9     4    10 1
    10     5     6 ar
    11     5    11 1
    12     6    12 1
    13     7    13 1
    14     7    14 1
    15     7    15 1
    16     8    16 1
@<TRIPOS>SUBSTRUCTURE
     1 CRS         1 TEMP              0 ****  ****    0 ROOT
