@<TRIPOS>MOLECULE
CRS
   16    16     1     0     0
SMALL
bcc


@<TRIPOS>ATOM
      1 C1         -0.0540   -0.1420    0.0460 ca        1 CRS      0.126100
      2 C2          1.3460   -0.1760    0.0150 ca        1 CRS     -0.215000
      3 C3          2.0630   -0.0540    1.2100 ca        1 CRS     -0.038300
      4 C4          1.3740    0.0990    2.4180 ca        1 CRS     -0.166000
      5 C5         -0.0200    0.1320    2.4350 ca        1 CRS     -0.094000
      6 C6         -0.7500    0.0130    1.2560 ca        1 CRS     -0.161000
      7 C7          3.5450   -0.0730    1.1890 c3        1 CRS     -0.056800
      8 O1         -0.8220   -0.2560   -1.0910 oh        1 CRS     -0.499100
      9 H2          1.8770   -0.2990   -0.9390 ha        1 CRS      0.133000
     10 H4          1.9360    0.1930    3.3580 ha        1 CRS      0.133000
     11 H5         -0.5520    0.2540    3.3910 ha        1 CRS      0.133000
     12 H6         -1.8480    0.0370    1.2540 ha        1 CRS      0.149000
     13 H71         3.9260   -0.7240    0.3640 hc        1 CRS      0.046033
     14 H72         3.9350    0.9630    1.0270 hc        1 CRS      0.046033
     15 H73         3.9540   -0.4540    2.1570 hc        1 CRS      0.046033
     16 HO1        -0.2230   -0.3570   -1.8460 ho        1 CRS      0.418000
@<TRIPOS>BOND
     1    1    2 ar  
     2    1    6 ar  
     3    1    8 1   
     4    2    3 ar  
     5    2    9 1   
     6    3    4 ar  
     7    3    7 1   
     8    4    5 ar  
     9    4   10 1   
    10    5    6 ar  
    11    5   11 1   
    12    6   12 1   
    13    7   13 1   
    14    7   14 1   
    15    7   15 1   
    16    8   16 1   
@<TRIPOS>SUBSTRUCTURE
     1 CRS         1 TEMP              0 ****  ****    0 ROOT
