@<TRIPOS>MOLECULE
CRT
  104   102     1     0     0
SMALL
bcc


@<TRIPOS>ATOM
      1 C1M         0.4740   -0.8550   -0.2140 c3        1 CRT      0.117700
      2 O1          1.5780   -0.1820   -0.7850 os        1 CRT     -0.423600
      3 C1          2.8650   -0.5690   -0.2760 c3        1 CRT      0.152800
      4 C2          2.9170   -0.4930    1.2420 c3        1 CRT     -0.118600
      5 C3          3.2170   -1.9750   -0.7500 c3        1 CRT     -0.118600
      6 C4          3.8470    0.4350   -0.9040 c3        1 CRT     -0.043200
      7 C5          3.5850    1.8310   -0.4840 c2        1 CRT     -0.135200
      8 C6          4.5620    2.7090   -0.2160 ce        1 CRT     -0.149000
      9 C7          4.3360    4.0940    0.1640 ce        1 CRT     -0.043300
     10 C8          2.9390    4.5960    0.2400 c3        1 CRT     -0.059900
     11 C9          5.3540    4.8920    0.4370 c1        1 CRT     -0.067900
     12 C10         6.3180    5.6560    0.6980 c1        1 CRT     -0.032900
     13 C11         7.3470    6.4300    0.9650 ce        1 CRT     -0.127100
     14 C12         7.2640    7.8260    1.3560 ce        1 CRT     -0.056200
     15 C13         5.9230    8.4530    1.4600 c3        1 CRT     -0.063900
     16 C14         8.4040    8.5120    1.6140 cf        1 CRT     -0.136000
     17 C15         8.4490    9.8980    2.0100 cf        1 CRT     -0.126000
     18 C16         9.6040   10.5370    2.2760 ce        1 CRT     -0.123000
     19 C17         9.7090   11.9290    2.6860 ce        1 CRT     -0.068200
     20 C18         8.4720   12.7450    2.6360 c3        1 CRT     -0.062900
     21 C19        10.9110   12.4080    3.0850 cf        1 CRT     -0.128000
     22 C20        11.1660   13.7440    3.5620 cf        1 CRT     -0.124000
     23 C21        12.3800   14.3190    3.6660 ce        1 CRT     -0.121000
     24 C22        13.6330   13.7200    3.2790 ce        1 CRT     -0.139000
     25 C23        14.8460   14.2720    3.5090 cf        1 CRT     -0.067200
     26 C24        15.0140   15.5860    4.1780 c3        1 CRT     -0.063900
     27 C25        16.0470   13.5820    3.0540 cf        1 CRT     -0.127000
     28 C26        17.1720   13.3730    3.7580 ce        1 CRT     -0.121000
     29 C27        17.3770   13.7540    5.1340 ce        1 CRT     -0.133000
     30 C28        18.5670   13.7990    5.7760 cf        1 CRT     -0.066200
     31 C29        19.8670   13.5030    5.1250 c3        1 CRT     -0.062900
     32 C30        18.5970   14.1570    7.1860 cf        1 CRT     -0.129000
     33 C31        19.6870   14.0930    7.9730 ce        1 CRT     -0.122000
     34 C32        19.6570   14.4540    9.3720 ce        1 CRT     -0.144000
     35 C33        20.7270   14.4180   10.1930 cf        1 CRT     -0.063200
     36 C34        22.0720   13.9760    9.7470 c3        1 CRT     -0.060900
     37 C35        20.5790   14.7770   11.6010 cf        1 CRT     -0.155000
     38 C36        21.2120   15.7670   12.2400 c2        1 CRT     -0.140200
     39 C37        22.1460   16.7360   11.6250 c3        1 CRT     -0.044200
     40 C38        23.3630   17.0360   12.5180 c3        1 CRT      0.152800
     41 C39        24.1120   15.7560   12.8530 c3        1 CRT     -0.118600
     42 C40        24.2820   18.0160   11.7960 c3        1 CRT     -0.118600
     43 O2         22.8080   17.6520   13.6910 os        1 CRT     -0.422600
     44 C2M        23.7190   17.8660   14.7510 c3        1 CRT      0.117700
     45 H1M1        0.3380   -0.5560    0.8550 h1        1 CRT      0.032367
     46 H1M2       -0.4000   -0.5120   -0.8250 h1        1 CRT      0.032367
     47 H1M3        0.5860   -1.9640   -0.2880 h1        1 CRT      0.032367
     48 H21A        2.5330    0.4960    1.5880 hc        1 CRT      0.044533
     49 H22A        2.2970   -1.3020    1.6980 hc        1 CRT      0.044533
     50 H23         3.9700   -0.6150    1.5890 hc        1 CRT      0.044533
     51 H31A        3.0440   -2.0600   -1.8490 hc        1 CRT      0.044533
     52 H32A        2.5900   -2.7360   -0.2300 hc        1 CRT      0.044533
     53 H33         4.2900   -2.1910   -0.5320 hc        1 CRT      0.044533
     54 H41         3.7410    0.3750   -2.0230 hc        1 CRT      0.060200
     55 H42         4.8890    0.1180   -0.6380 hc        1 CRT      0.060200
     56 H5          2.5180    2.1050   -0.4300 ha        1 CRT      0.140000
     57 H6          5.6220    2.4030   -0.2750 ha        1 CRT      0.128000
     58 H81         2.4380    4.4790   -0.7530 hc        1 CRT      0.049033
     59 H82         2.9090    5.6740    0.5290 hc        1 CRT      0.049033
     60 H83         2.3640    4.0080    0.9980 hc        1 CRT      0.049033
     61 H9          1.5890    7.6480    5.5820 ha        1 CRT      0.000000
     62 H10         1.0690    7.9230    5.2480 ha        1 CRT      0.000000
     63 H11         8.3660    6.0020    0.8930 ha        1 CRT      0.138000
     64 H131        5.7500    8.8310    2.4980 hc        1 CRT      0.047033
     65 H132        5.8440    9.3190    0.7550 hc        1 CRT      0.047033
     66 H133        5.1090    7.7270    1.2130 hc        1 CRT      0.047033
     67 H14         9.3800    8.0020    1.5240 ha        1 CRT      0.123000
     68 H15         7.4800   10.4210    2.0910 ha        1 CRT      0.127000
     69 H16        10.5630    9.9920    2.1960 ha        1 CRT      0.122000
     70 H181        8.6810   13.8350    2.7570 hc        1 CRT      0.045033
     71 H182        7.7710   12.4270    3.4500 hc        1 CRT      0.045033
     72 H183        7.9550   12.6040    1.6530 hc        1 CRT      0.045033
     73 H19        11.7840   11.7300    3.0690 ha        1 CRT      0.125000
     74 H20        10.2840   14.3260    3.8840 ha        1 CRT      0.123000
     75 H21        12.4440   15.3440    4.0760 ha        1 CRT      0.122000
     76 H22        13.5760   12.7450    2.7620 ha        1 CRT      0.126000
     77 H241       14.4680   16.3810    3.6100 hc        1 CRT      0.047033
     78 H242       16.0920   15.8750    4.2370 hc        1 CRT      0.047033
     79 H243       14.6000   15.5530    5.2170 hc        1 CRT      0.047033
     80 H25        15.9840   13.1960    2.0200 ha        1 CRT      0.126000
     81 H26        18.0050   12.8380    3.2660 ha        1 CRT      0.124000
     82 H27        16.4560   14.0110    5.6920 ha        1 CRT      0.129000
     83 H291       20.6090   14.3060    5.3620 hc        1 CRT      0.044367
     84 H292       19.7770   13.4390    4.0140 hc        1 CRT      0.044367
     85 H293       20.2700   12.5300    5.5030 hc        1 CRT      0.044367
     86 H30        17.6330   14.4920    7.6100 ha        1 CRT      0.123000
     87 H31        20.6580   13.7520    7.5740 ha        1 CRT      0.124000
     88 H32        18.6790   14.7820    9.7680 ha        1 CRT      0.126000
     89 H341       22.8150   14.0390   10.5800 hc        1 CRT      0.044033
     90 H342       22.0320   12.9150    9.3930 hc        1 CRT      0.044033
     91 H343       22.4350   14.6120    8.9010 hc        1 CRT      0.044033
     92 H35        19.8580   14.1460   12.1530 ha        1 CRT      0.128000
     93 H36        21.0270   15.9380   13.3160 ha        1 CRT      0.137000
     94 H371       22.5210   16.3680   10.6340 hc        1 CRT      0.061200
     95 H372       21.5930   17.7000   11.4510 hc        1 CRT      0.061200
     96 H391       23.4790   15.1030   13.5010 hc        1 CRT      0.043367
     97 H392       24.3550   15.2060   11.9130 hc        1 CRT      0.043367
     98 H393       25.0640   15.9840   13.3890 hc        1 CRT      0.043367
     99 H401       24.5490   17.6150   10.7900 hc        1 CRT      0.043367
    100 H402       25.2220   18.1750   12.3750 hc        1 CRT      0.043367
    101 H403       23.7680   18.9990   11.6740 hc        1 CRT      0.043367
    102 H2M1       24.0450   16.8940   15.1960 h1        1 CRT      0.031367
    103 H2M2       23.1310   18.4550   15.5010 h1        1 CRT      0.031367
    104 H2M3       24.6090   18.4500   14.4140 h1        1 CRT      0.031367
@<TRIPOS>BOND
     1    1    2 1   
     2    1   45 1   
     3    1   46 1   
     4    1   47 1   
     5    2    3 1   
     6    3    4 1   
     7    3    5 1   
     8    3    6 1   
     9    4   48 1   
    10    4   49 1   
    11    4   50 1   
    12    5   51 1   
    13    5   52 1   
    14    5   53 1   
    15    6    7 1   
    16    6   54 1   
    17    6   55 1   
    18    7    8 2   
    19    7   56 1   
    20    8    9 1   
    21    8   57 1   
    22    9   10 1   
    23    9   11 2   
    24   10   58 1   
    25   10   59 1   
    26   10   60 1   
    27   11   12 2   
    28   12   13 2   
    29   13   14 1   
    30   13   63 1   
    31   14   15 1   
    32   14   16 2   
    33   15   64 1   
    34   15   65 1   
    35   15   66 1   
    36   16   17 1   
    37   16   67 1   
    38   17   18 2   
    39   17   68 1   
    40   18   19 1   
    41   18   69 1   
    42   19   20 1   
    43   19   21 2   
    44   20   70 1   
    45   20   71 1   
    46   20   72 1   
    47   21   22 1   
    48   21   73 1   
    49   22   23 2   
    50   22   74 1   
    51   23   24 1   
    52   23   75 1   
    53   24   25 2   
    54   24   76 1   
    55   25   26 1   
    56   25   27 1   
    57   26   77 1   
    58   26   78 1   
    59   26   79 1   
    60   27   28 2   
    61   27   80 1   
    62   28   29 1   
    63   28   81 1   
    64   29   30 2   
    65   29   82 1   
    66   30   31 1   
    67   30   32 1   
    68   31   83 1   
    69   31   84 1   
    70   31   85 1   
    71   32   33 2   
    72   32   86 1   
    73   33   34 1   
    74   33   87 1   
    75   34   35 2   
    76   34   88 1   
    77   35   36 1   
    78   35   37 1   
    79   36   89 1   
    80   36   90 1   
    81   36   91 1   
    82   37   38 2   
    83   37   92 1   
    84   38   39 1   
    85   38   93 1   
    86   39   40 1   
    87   39   94 1   
    88   39   95 1   
    89   40   41 1   
    90   40   42 1   
    91   40   43 1   
    92   41   96 1   
    93   41   97 1   
    94   41   98 1   
    95   42   99 1   
    96   42  100 1   
    97   42  101 1   
    98   43   44 1   
    99   44  102 1   
   100   44  103 1   
   101   44  104 1   
   102   61   62 1   
@<TRIPOS>SUBSTRUCTURE
     1 CRT         1 TEMP              0 ****  ****    0 ROOT
