@<TRIPOS>MOLECULE
CRV
   60    62     1     0     0
SMALL
bcc


@<TRIPOS>ATOM
      1 C1           0.0000     0.0000     0.0000 c3         1 CRV       0.577900
      2 C2           1.5310     0.0000     0.0000 c3         1 CRV       0.130800
      3 N3           2.0190     0.0000     1.3860 n7         1 CRV      -0.522200
      4 C4           2.0330    -1.2300    -0.7110 ca         1 CRV      -0.164300
      5 F5          -0.4660     1.1410     0.6600 f          1 CRV      -0.197300
      6 F6          -0.4660     0.0010    -1.3190 f          1 CRV      -0.197300
      7 F7          -0.4650    -1.1430     0.6590 f          1 CRV      -0.197300
      8 C8           2.0440     1.4010     1.8250 c3         1 CRV       0.051500
      9 C9           3.3400     2.0400     1.3950 c          1 CRV       0.537100
     10 C10          1.9280     1.4590     3.3500 c3         1 CRV      -0.033600
     11 S11          0.3700     0.6910     3.8670 s6         1 CRV       0.796000
     12 C12          0.5140     0.9060     5.6630 c3         1 CRV       0.071700
     13 N13          3.5850     3.3320     1.6910 ns         1 CRV      -0.189900
     14 O14          4.1610     1.3920     0.7820 o          1 CRV      -0.626100
     15 C15          4.8860     3.9220     1.3680 cx         1 CRV      -0.161600
     16 N17          3.9830     4.3160    -0.8740 nz         1 CRV       0.084400
     17 C18          5.4050     5.0330     2.2850 cx         1 CRV      -0.014400
     18 C19          6.0460     3.6440     2.3270 cx         1 CRV      -0.014400
     19 C20          2.4600    -1.1420    -2.0240 ca         1 CRV      -0.051500
     20 C21          2.9210    -2.2690    -2.6770 ca         1 CRV      -0.135000
     21 C22          2.9550    -3.4880    -2.0160 ca         1 CRV       0.157100
     22 C23          2.5270    -3.5730    -0.6990 ca         1 CRV      -0.135000
     23 C24          2.0730    -2.4430    -0.0480 ca         1 CRV      -0.051500
     24 O25          3.4090    -4.5970    -2.6570 oh         1 CRV      -0.498100
     25 C26         -0.7020     0.3270     6.3380 ca         1 CRV      -0.101300
     26 C27         -1.8080     1.1230     6.5700 ca         1 CRV      -0.080500
     27 C28         -2.9260     0.5910     7.1850 ca         1 CRV      -0.091500
     28 C29         -2.9340    -0.7350     7.5770 ca         1 CRV      -0.083000
     29 C30         -1.8260    -1.5300     7.3490 ca         1 CRV      -0.091500
     30 C31         -0.7100    -0.9980     6.7300 ca         1 CRV      -0.080500
     31 O32         -0.7150     1.4780     3.3930 o          1 CRV      -0.551300
     32 O33          0.4140    -0.6970     3.5630 o          1 CRV      -0.551300
     33 C16          5.2120     4.0270    -0.1230 c3         1 CRV      -0.005200
     34 H2           1.8920     0.8850    -0.5100 h1         1 CRV       0.011700
     35 HN3          2.9470    -0.3750     1.4120 hn         1 CRV       0.308800
     36 H8           1.2130     1.9340     1.3800 h1         1 CRV       0.080700
     37 H101         1.9470     2.4920     3.6740 h1         1 CRV       0.065700
     38 H102         2.7590     0.9250     3.7960 h1         1 CRV       0.065700
     39 H121         1.4010     0.3950     6.0170 h1         1 CRV       0.062200
     40 H122         0.5880     1.9610     5.8950 h1         1 CRV       0.062200
     41 HN13         2.8740     3.8910     2.1180 hn         1 CRV       0.199500
     42 H171         3.5210     3.4570    -1.1000 hn         1 CRV       0.223800
     43 H172         3.3760     4.8830    -0.3160 hn         1 CRV       0.223800
     44 H181         4.7690     5.2800     3.1260 hc         1 CRV       0.065950
     45 H182         5.9910     5.8040     1.7990 hc         1 CRV       0.065950
     46 H191         7.0240     3.5670     1.8670 hc         1 CRV       0.065950
     47 H192         5.8030     3.0430     3.1940 hc         1 CRV       0.065950
     48 H20          2.4330    -0.1900    -2.5390 ha         1 CRV       0.115000
     49 H21          3.2550    -2.2000    -3.7060 ha         1 CRV       0.122500
     50 H23          2.5550    -4.5230    -0.1800 ha         1 CRV       0.122500
     51 H24          1.7380    -2.5090     0.9800 ha         1 CRV       0.115000
     52 HO25         2.6890    -5.0290    -3.0850 ho         1 CRV       0.414000
     53 H27         -1.8010     2.1620     6.2640 ha         1 CRV       0.109000
     54 H28         -3.7930     1.2140     7.3660 ha         1 CRV       0.109500
     55 H29         -3.8090    -1.1520     8.0610 ha         1 CRV       0.108000
     56 H30         -1.8320    -2.5680     7.6560 ha         1 CRV       0.109500
     57 H31          0.1580    -1.6210     6.5520 ha         1 CRV       0.109000
     58 H161         5.9270     4.8260    -0.2810 hx         1 CRV       0.095700
     59 H162         5.6350     3.0910    -0.4670 hx         1 CRV       0.095700
     60 H173         4.2130     4.8030    -1.7170 hn         1 CRV       0.223800
@<TRIPOS>BOND
     1     1     2 1   
     2     1     5 1   
     3     1     6 1   
     4     1     7 1   
     5     2     3 1   
     6     2     4 1   
     7     2    34 1   
     8     3     8 1   
     9     3    35 1   
    10     4    19 ar  
    11     4    23 ar  
    12     8     9 1   
    13     8    10 1   
    14     8    36 1   
    15     9    13 1   
    16     9    14 2   
    17    10    11 1   
    18    10    37 1   
    19    10    38 1   
    20    11    12 1   
    21    11    31 2   
    22    11    32 2   
    23    12    25 1   
    24    12    39 1   
    25    12    40 1   
    26    13    15 1   
    27    13    41 1   
    28    15    17 1   
    29    15    18 1   
    30    15    33 1   
    31    16    33 1   
    32    16    42 1   
    33    16    43 1   
    34    16    60 1   
    35    17    18 1   
    36    17    44 1   
    37    17    45 1   
    38    18    46 1   
    39    18    47 1   
    40    19    20 ar  
    41    19    48 1   
    42    20    21 ar  
    43    20    49 1   
    44    21    22 ar  
    45    21    24 1   
    46    22    23 ar  
    47    22    50 1   
    48    23    51 1   
    49    24    52 1   
    50    25    26 ar  
    51    25    30 ar  
    52    26    27 ar  
    53    26    53 1   
    54    27    28 ar  
    55    27    54 1   
    56    28    29 ar  
    57    28    55 1   
    58    29    30 ar  
    59    29    56 1   
    60    30    57 1   
    61    33    58 1   
    62    33    59 1   
@<TRIPOS>SUBSTRUCTURE
     1 CRV         1 TEMP              0 ****  ****    0 ROOT
