@<TRIPOS>MOLECULE
molecule
   14    13     1     0     0
SMALL
bcc


@<TRIPOS>ATOM
      1 O1           0.0000     0.0000     0.0000 oh         1 CRY      -0.602800
      2 O2           1.4630    -1.1670     2.1150 oh         1 CRY      -0.587800
      3 O3           3.9470    -0.0020     2.7870 oh         1 CRY      -0.602800
      4 C1           1.4290     0.0000     0.0000 c3         1 CRY       0.129400
      5 C2           1.9400     0.0000     1.4410 c3         1 CRY       0.155100
      6 C3           3.4690    -0.0010     1.4410 c3         1 CRY       0.129400
      7 HO1         -0.3140     0.0950    -0.8840 ho         1 CRY       0.404000
      8 HO2          0.9400    -0.9100     2.8560 ho         1 CRY       0.412000
      9 HO3          4.8860     0.0920     2.7870 ho         1 CRY       0.404000
     10 H11          1.7890    -0.8840    -0.5110 h1         1 CRY       0.027700
     11 H12          1.7890     0.8840    -0.5110 h1         1 CRY       0.027700
     12 H21          1.5800     0.8850     1.9520 h1         1 CRY       0.050700
     13 H31          3.8310     0.8830     0.9300 h1         1 CRY       0.027700
     14 H32          3.8290    -0.8860     0.9290 h1         1 CRY       0.027700
@<TRIPOS>BOND
     1     1     4 1
     2     1     7 1
     3     2     5 1
     4     2     8 1
     5     3     6 1
     6     3     9 1
     7     4     5 1
     8     4    10 1
     9     4    11 1
    10     5     6 1
    11     5    12 1
    12     6    13 1
    13     6    14 1
@<TRIPOS>SUBSTRUCTURE
     1 CRY         1 TEMP              0 ****  ****    0 ROOT
