@<TRIPOS>MOLECULE
CRY
   14    13     1     0     0
SMALL
bcc


@<TRIPOS>ATOM
      1 O1          0.1110    0.2700   -0.3510 oh        1 CRY     -0.603800
      2 O2          1.2530   -1.0540    1.8540 oh        1 CRY     -0.612800
      3 O3          3.6380   -0.0260    2.8680 oh        1 CRY     -0.603800
      4 C1          1.5030    0.1180   -0.1810 c3        1 CRY      0.115900
      5 C2          1.8780    0.0960    1.3030 c3        1 CRY      0.100100
      6 C3          3.3970    0.0240    1.4700 c3        1 CRY      0.115900
      7 HO1        -0.3140   -0.4420    0.1480 ho        1 CRY      0.414000
      8 HO2         1.5440   -1.1130    2.7740 ho        1 CRY      0.425000
      9 HO3         4.5880   -0.1440    2.9840 ho        1 CRY      0.414000
     10 H11         1.8540   -0.8260   -0.6770 h1        1 CRY      0.043450
     11 H12         1.9610    1.0120   -0.6810 h1        1 CRY      0.043450
     12 H21         1.4820    1.0150    1.8190 h1        1 CRY      0.061700
     13 H31         3.8010   -0.8980    0.9750 h1        1 CRY      0.043450
     14 H32         3.8800    0.9330    1.0260 h1        1 CRY      0.043450
@<TRIPOS>BOND
     1    1    4 1   
     2    1    7 1   
     3    2    5 1   
     4    2    8 1   
     5    3    6 1   
     6    3    9 1   
     7    4    5 1   
     8    4   10 1   
     9    4   11 1   
    10    5    6 1   
    11    5   12 1   
    12    6   13 1   
    13    6   14 1   
@<TRIPOS>SUBSTRUCTURE
     1 CRY         1 TEMP              0 ****  ****    0 ROOT
