@<TRIPOS>MOLECULE
CRZ
   33    35     1     0     0
SMALL
bcc


@<TRIPOS>ATOM
      1 O19        -0.0330    0.0010   -0.1740 o         1 CRZ     -0.845300
      2 C1          1.2210    0.0000   -0.0110 c         1 CRZ      0.911600
      3 O18         1.7910   -0.0000    1.1170 o         1 CRZ     -0.845300
      4 C2          2.0870    0.0000   -1.2860 c3        1 CRZ     -0.201400
      5 C3          3.5620    0.0000   -0.9730 c3        1 CRZ     -0.084400
      6 C4          4.3620   -0.0000   -2.2750 c3        1 CRZ      0.035300
      7 N5          5.7960   -0.0000   -2.1490 na        1 CRZ     -0.063300
      8 C6          6.6010    1.1340   -1.9570 ca        1 CRZ      0.011800
      9 C17         6.2680    2.4950   -2.0010 ca        1 CRZ     -0.150000
     10 C7          7.9700    0.7240   -1.7160 cp        1 CRZ     -0.089000
     11 C14         8.9590    1.6830   -1.5410 ca        1 CRZ     -0.081000
     12 C15         8.6110    3.0300   -1.5950 ca        1 CRZ     -0.178000
     13 C16         7.2860    3.4240   -1.8190 ca        1 CRZ     -0.108000
     14 C8          7.9700   -0.7250   -1.7150 cp        1 CRZ     -0.089000
     15 C9          6.6010   -1.1340   -1.9550 ca        1 CRZ      0.011800
     16 C10         6.2670   -2.4950   -1.9980 ca        1 CRZ     -0.150000
     17 C13         8.9590   -1.6830   -1.5380 ca        1 CRZ     -0.081000
     18 C12         8.6110   -3.0310   -1.5910 ca        1 CRZ     -0.178000
     19 C11         7.2850   -3.4240   -1.8140 ca        1 CRZ     -0.108000
     20 H21         1.8160   -0.9030   -1.8880 hc        1 CRZ      0.021700
     21 H22         1.8160    0.9040   -1.8890 hc        1 CRZ      0.021700
     22 H31         3.8120   -0.8990   -0.3530 hc        1 CRZ      0.060700
     23 H32         3.8120    0.9000   -0.3540 hc        1 CRZ      0.060700
     24 H41         4.0820    0.9130   -2.8770 h1        1 CRZ      0.047700
     25 H42         4.0820   -0.9140   -2.8760 h1        1 CRZ      0.047700
     26 H17         5.2290    2.8160   -2.1590 ha        1 CRZ      0.145000
     27 H14         9.9990    1.3770   -1.3580 ha        1 CRZ      0.124000
     28 H15         9.3850    3.7980   -1.4550 ha        1 CRZ      0.119000
     29 H16         7.0410    4.4960   -1.8440 ha        1 CRZ      0.122000
     30 H10         5.2280   -2.8160   -2.1550 ha        1 CRZ      0.145000
     31 H13         9.9990   -1.3780   -1.3560 ha        1 CRZ      0.124000
     32 H12         9.3840   -3.7980   -1.4500 ha        1 CRZ      0.119000
     33 H11         7.0400   -4.4970   -1.8380 ha        1 CRZ      0.122000
@<TRIPOS>BOND
     1    1    2 1   
     2    2    3 1   
     3    2    4 1   
     4    4    5 1   
     5    4   20 1   
     6    4   21 1   
     7    5    6 1   
     8    5   22 1   
     9    5   23 1   
    10    6    7 1   
    11    6   24 1   
    12    6   25 1   
    13    7    8 1   
    14    7   15 1   
    15    8    9 ar  
    16    8   10 ar  
    17    9   13 ar  
    18    9   26 1   
    19   10   11 ar  
    20   10   14 1   
    21   11   12 ar  
    22   11   27 1   
    23   12   13 ar  
    24   12   28 1   
    25   13   29 1   
    26   14   15 ar  
    27   14   17 ar  
    28   15   16 ar  
    29   16   19 ar  
    30   16   30 1   
    31   17   18 ar  
    32   17   31 1   
    33   18   19 ar  
    34   18   32 1   
    35   19   33 1   
@<TRIPOS>SUBSTRUCTURE
     1 CRZ         1 TEMP              0 ****  ****    0 ROOT
