@<TRIPOS>MOLECULE
molecule
   33    35     1     0     0
SMALL
bcc


@<TRIPOS>ATOM
      1 O19          0.0000     0.0000     0.0000 o          1 CRZ      -0.850300
      2 C1           1.3420     0.0000     0.0000 c          1 CRZ       0.891600
      3 O18          1.9460     0.0000     1.0460 o          1 CRZ      -0.850300
      4 C2           2.0950    -0.0000    -1.3050 c3         1 CRZ      -0.184400
      5 C3           3.6000     0.0000    -1.0240 c3         1 CRZ      -0.086400
      6 C4           4.3650    -0.0000    -2.3500 c3         1 CRZ       0.035300
      7 N5           5.8040     0.0000    -2.0820 na         1 CRZ      -0.064300
      8 C6           6.5830     1.1350    -1.9430 ca         1 CRZ       0.021800
      9 C17          6.2780     2.4910    -1.9930 ca         1 CRZ      -0.147000
     10 C7           7.9040     0.7370    -1.6920 cp         1 CRZ      -0.098500
     11 C14          8.8980     1.6940    -1.5060 ca         1 CRZ      -0.077500
     12 C15          8.5780     3.0340    -1.5650 ca         1 CRZ      -0.177000
     13 C16          7.2710     3.4290    -1.8080 ca         1 CRZ      -0.105000
     14 C8           7.9040    -0.7370    -1.6920 cp         1 CRZ      -0.098500
     15 C9           6.5810    -1.1350    -1.9370 ca         1 CRZ       0.021800
     16 C10          6.2780    -2.4910    -1.9940 ca         1 CRZ      -0.147000
     17 C13          8.8980    -1.6950    -1.5060 ca         1 CRZ      -0.077500
     18 C12          8.5780    -3.0340    -1.5660 ca         1 CRZ      -0.177000
     19 C11          7.2710    -3.4290    -1.8080 ca         1 CRZ      -0.105000
     20 H21          1.8340     0.8850    -1.8730 hc         1 CRZ       0.027700
     21 H22          1.8340    -0.8850    -1.8730 hc         1 CRZ       0.027700
     22 H31          3.8610    -0.8850    -0.4560 hc         1 CRZ       0.060700
     23 H32          3.8610     0.8850    -0.4560 hc         1 CRZ       0.060700
     24 H41          4.1040     0.8850    -2.9180 h1         1 CRZ       0.049200
     25 H42          4.1040    -0.8850    -2.9180 h1         1 CRZ       0.049200
     26 H17          5.2610     2.8100    -2.1820 ha         1 CRZ       0.138000
     27 H14          9.9190     1.3870    -1.3160 ha         1 CRZ       0.120500
     28 H15          9.3500     3.7800    -1.4210 ha         1 CRZ       0.118000
     29 H16          7.0290     4.4840    -1.8530 ha         1 CRZ       0.123000
     30 H10          5.2600    -2.8110    -2.1820 ha         1 CRZ       0.138000
     31 H13          9.9190    -1.3890    -1.3170 ha         1 CRZ       0.120500
     32 H12          9.3490    -3.7800    -1.4210 ha         1 CRZ       0.118000
     33 H11          7.0290    -4.4840    -1.8530 ha         1 CRZ       0.123000
@<TRIPOS>BOND
     1     1     2 1
     2     2     3 1
     3     2     4 1
     4     4     5 1
     5     4    20 1
     6     4    21 1
     7     5     6 1
     8     5    22 1
     9     5    23 1
    10     6     7 1
    11     6    24 1
    12     6    25 1
    13     7     8 1
    14     7    15 1
    15     8     9 ar
    16     8    10 ar
    17     9    13 ar
    18     9    26 1
    19    10    11 ar
    20    10    14 1
    21    11    12 ar
    22    11    27 1
    23    12    13 ar
    24    12    28 1
    25    13    29 1
    26    14    15 ar
    27    14    17 ar
    28    15    16 ar
    29    16    19 ar
    30    16    30 1
    31    17    18 ar
    32    17    31 1
    33    18    19 ar
    34    18    32 1
    35    19    33 1
@<TRIPOS>SUBSTRUCTURE
     1 CRZ         1 TEMP              0 ****  ****    0 ROOT
