@<TRIPOS>MOLECULE
molecule
   24    23     1     0     0
SMALL
bcc


@<TRIPOS>ATOM
      1 C2           1.4290     0.0000     0.0000 c3         1 CS2       0.018100
      2 C3           1.9390     0.0000     1.4420 c3         1 CS2       0.177100
      3 O1A          3.2470    -1.3940    -0.9220 o          1 CS2      -0.838300
      4 C1           1.9310    -1.2310    -0.7100 c          1 CS2       0.866600
      5 O1B          1.1500    -2.0710    -1.0890 o          1 CS2      -0.838300
      6 O2           0.0000     0.0000     0.0000 oh         1 CS2      -0.627800
      7 O3           3.3680    -0.0000     1.4420 oh         1 CS2      -0.580800
      8 C4           1.4300     1.2500     2.1630 c3         1 CS2       0.141100
      9 O4           1.8080     2.4130     1.4240 oh         1 CS2      -0.590800
     10 C5           2.0400     1.3150     3.5640 c3         1 CS2       0.134100
     11 O5           1.6620     0.1510     4.3030 oh         1 CS2      -0.604800
     12 C6           1.5300     2.5650     4.2860 c3         1 CS2       0.105400
     13 O6           2.1880     2.6880     5.5480 oh         1 CS2      -0.619800
     14 H2           1.7900     0.8840    -0.5110 h1         1 CS2       0.042700
     15 H3           1.5780    -0.8840     1.9530 h1         1 CS2       0.057700
     16 HO2         -0.3140     0.2790    -0.8440 ho         1 CS2       0.393000
     17 HO3          3.6830    -0.8330     1.7520 ho         1 CS2       0.404000
     18 H4           0.3500     1.2080     2.2410 h1         1 CS2       0.052700
     19 HO4          1.0410     2.9290     1.2350 ho         1 CS2       0.386000
     20 H5           3.1190     1.3580     3.4860 h1         1 CS2       0.070700
     21 HO5          2.3190    -0.0360     4.9520 ho         1 CS2       0.405000
     22 H61          1.7390     3.4400     3.6820 h1         1 CS2       0.026700
     23 H62          0.4610     2.4820     4.4420 h1         1 CS2       0.026700
     24 HO6          1.9190     3.4890     5.9660 ho         1 CS2       0.392000
@<TRIPOS>BOND
     1     1     6 1
     2     1     4 1
     3     1     2 1
     4     1    14 1
     5     2     8 1
     6     2     7 1
     7     2    15 1
     8     3     4 1
     9     4     5 1
    10     6    16 1
    11     7    17 1
    12     8     9 1
    13     8    10 1
    14     8    18 1
    15     9    19 1
    16    10    12 1
    17    10    11 1
    18    10    20 1
    19    11    21 1
    20    12    13 1
    21    12    22 1
    22    12    23 1
    23    13    24 1
@<TRIPOS>SUBSTRUCTURE
     1 CS2         1 TEMP              0 ****  ****    0 ROOT
