@<TRIPOS>MOLECULE
CS2
   24    23     1     0     0
SMALL
bcc


@<TRIPOS>ATOM
      1 C2          1.3820    0.2930    0.0570 c3        1 CS2     -0.032900
      2 C3          2.0050    0.2750    1.4630 c3        1 CS2      0.125100
      3 O1A         3.4680   -0.3050   -0.9910 o         1 CS2     -0.825800
      4 C1          2.2390   -0.5780   -0.8990 c         1 CS2      0.896600
      5 O1B         1.6400   -1.5030   -1.5130 o         1 CS2     -0.825800
      6 O2          0.0380   -0.1430    0.1250 oh        1 CS2     -0.648800
      7 O3          3.1680    1.0860    1.4910 oh        1 CS2     -0.641800
      8 C4          1.0220    0.7610    2.5380 c3        1 CS2      0.125100
      9 O4          0.3820    1.9890    2.2200 oh        1 CS2     -0.624800
     10 C5          1.6890    0.9520    3.9060 c3        1 CS2      0.118100
     11 O5          0.7040    1.0840    4.9220 oh        1 CS2     -0.621800
     12 C6          2.6310    2.1600    3.9490 c3        1 CS2      0.106400
     13 O6          2.5870    2.8140    5.2060 oh        1 CS2     -0.621800
     14 H2          1.3660    1.3500   -0.3280 h1        1 CS2      0.047700
     15 H3          2.2970   -0.7830    1.7230 h1        1 CS2      0.036700
     16 HO2        -0.0240   -0.9540   -0.4090 ho        1 CS2      0.435000
     17 HO3         3.6810    0.8580    0.6950 ho        1 CS2      0.452000
     18 H4          0.2240   -0.0340    2.6350 h1        1 CS2      0.052700
     19 HO4         0.0190    1.8860    1.3300 ho        1 CS2      0.427000
     20 H5          2.2420    0.0090    4.1730 h1        1 CS2      0.068700
     21 HO5         0.1860    1.8680    4.6990 ho        1 CS2      0.416000
     22 H61         2.3210    2.9350    3.1980 h1        1 CS2      0.069200
     23 H62         3.6810    1.8310    3.7290 h1        1 CS2      0.069200
     24 HO6         2.4680    2.1350    5.8820 ho        1 CS2      0.398000
@<TRIPOS>BOND
     1    1    2 1   
     2    1    4 1   
     3    1    6 1   
     4    1   14 1   
     5    2    7 1   
     6    2    8 1   
     7    2   15 1   
     8    3    4 1   
     9    4    5 1   
    10    6   16 1   
    11    7   17 1   
    12    8    9 1   
    13    8   10 1   
    14    8   18 1   
    15    9   19 1   
    16   10   11 1   
    17   10   12 1   
    18   10   20 1   
    19   11   21 1   
    20   12   13 1   
    21   12   22 1   
    22   12   23 1   
    23   13   24 1   
@<TRIPOS>SUBSTRUCTURE
     1 CS2         1 TEMP              0 ****  ****    0 ROOT
