@<TRIPOS>MOLECULE
CS5
   83    85     1     0     0
SMALL
bcc


@<TRIPOS>ATOM
      1 C1           0.0000     0.0000     0.0000 ca         1 CS5      -0.101000
      2 C2           1.3800     0.0000     0.0000 ca         1 CS5      -0.102300
      3 C3           2.0760     0.0000     1.1920 ca         1 CS5      -0.073000
      4 C4           1.3870    -0.0010     2.4070 ca         1 CS5      -0.162600
      5 C5          -0.0050    -0.0010     2.4150 ca         1 CS5       0.015000
      6 C6          -0.7020    -0.0010     1.2080 ca         1 CS5      -0.149600
      7 C7          -2.1800    -0.0000     1.2050 c          1 CS5       0.608700
      8 N1          -2.8530     0.8350     0.3890 n          1 CS5      -0.148800
      9 O1          -2.7900    -0.7530     1.9400 o          1 CS5      -0.632100
     10 C8          -4.3130     0.9290     0.4780 c3         1 CS5       0.032000
     11 C9          -4.6930     2.0170     1.4840 c3         1 CS5      -0.056900
     12 C10         -6.2180     2.1140     1.5760 c3         1 CS5       0.007900
     13 C11         -2.1250     1.6490    -0.5880 c3         1 CS5       0.032000
     14 C12         -2.1720     0.9680    -1.9570 c3         1 CS5      -0.056900
     15 C13         -1.3010     1.7460    -2.9440 c3         1 CS5       0.007900
     16 C14          2.1350    -0.0030     3.6830 c          1 CS5       0.596700
     17 N2           3.4820    -0.0030     3.6750 ns         1 CS5      -0.194900
     18 O2           1.5340    -0.0040     4.7390 o          1 CS5      -0.641100
     19 C15          4.2230    -0.0050     4.9380 c3         1 CS5       0.013700
     20 C16          5.6090     0.6040     4.7190 c3         1 CS5       0.181100
     21 C17          4.3720    -1.4420     5.4410 c3         1 CS5       0.007900
     22 O3           6.3620    -0.2310     3.8380 oh         1 CS5      -0.578800
     23 C18          6.3360     0.7180     6.0610 c3         1 CS5       0.111800
     24 N3           7.6160     1.4110     5.8680 n7         1 CS5      -0.577200
     25 C19          8.3430     1.5380     7.1370 c3         1 CS5       0.204100
     26 C20          9.6470     2.2530     6.9000 ca         1 CS5      -0.060300
     27 C21          3.0120    -2.0020     5.7740 ca         1 CS5      -0.026300
     28 C22          2.4970    -1.8500     7.0470 ca         1 CS5      -0.141000
     29 C23          1.2480    -2.3630     7.3540 ca         1 CS5       0.142400
     30 C24          0.5160    -3.0290     6.3860 ca         1 CS5      -0.164000
     31 C25          1.0330    -3.1790     5.1110 ca         1 CS5       0.142400
     32 C26          2.2800    -2.6610     4.8040 ca         1 CS5      -0.141000
     33 C27         10.7840     1.5300     6.5830 ca         1 CS5      -0.121000
     34 C28         11.9820     2.1830     6.3650 ca         1 CS5      -0.057000
     35 C29         12.0480     3.5600     6.4640 ca         1 CS5      -0.209000
     36 C30         10.9110     4.2870     6.7820 ca         1 CS5       0.151100
     37 C31          9.7080     3.6300     6.9950 ca         1 CS5      -0.140000
     38 O4          10.9730     5.6410     6.8800 os         1 CS5      -0.308900
     39 C32         12.2440     6.2500     6.6420 c3         1 CS5       0.244700
     40 C33          2.1310     0.0010    -1.3070 c3         1 CS5       0.065200
     41 F2           0.7450    -2.2150     8.6000 f          1 CS5      -0.127400
     42 F1           0.3210    -3.8290     4.1650 f          1 CS5      -0.127400
     43 H1          -0.5400     0.0000    -0.9390 ha         1 CS5       0.141000
     44 H3           3.1600     0.0000     1.1850 ha         1 CS5       0.104000
     45 H5          -0.5440    -0.0020     3.3540 ha         1 CS5       0.143000
     46 H81         -4.7180     1.1800    -0.4950 h1         1 CS5       0.036700
     47 H82         -4.7170    -0.0220     0.8030 h1         1 CS5       0.036700
     48 H91         -4.2890     2.9680     1.1590 hc         1 CS5       0.023450
     49 H92         -4.2880     1.7660     2.4570 hc         1 CS5       0.023450
     50 H101        -6.6220     2.3740     0.6050 hc         1 CS5       0.003533
     51 H102        -6.6230     1.1600     1.8920 hc         1 CS5       0.003533
     52 H103        -6.4880     2.8780     2.2960 hc         1 CS5       0.003533
     53 H111        -2.5840     2.6280    -0.6550 h1         1 CS5       0.036700
     54 H112        -1.0940     1.7550    -0.2720 h1         1 CS5       0.036700
     55 H121        -1.8010    -0.0460    -1.8690 hc         1 CS5       0.023450
     56 H122        -3.1940     0.9480    -2.3150 hc         1 CS5       0.023450
     57 H131        -0.6560     2.4250    -2.3990 hc         1 CS5       0.003533
     58 H132        -0.6950     1.0530    -3.5150 hc         1 CS5       0.003533
     59 H133        -1.9340     2.3110    -3.6170 hc         1 CS5       0.003533
     60 HN2          3.9770     0.0340     2.8050 hn         1 CS5       0.183500
     61 H15          3.6840     0.5800     5.6740 h1         1 CS5       0.063700
     62 H16          5.5040     1.5900     4.2810 h1         1 CS5       0.003700
     63 H171         4.8320    -2.0480     4.6690 hc         1 CS5       0.037700
     64 H172         4.9940    -1.4530     6.3270 hc         1 CS5       0.037700
     65 HO3          6.8320     0.3060     3.2210 ho         1 CS5       0.397000
     66 H181         6.5190    -0.2740     6.4570 h1         1 CS5       0.023200
     67 H182         5.7230     1.2780     6.7570 h1         1 CS5       0.023200
     68 HN3          7.4480     2.3220     5.4870 hn         1 CS5       0.250800
     69 H191         7.7440     2.1030     7.8410 h1         1 CS5       0.012200
     70 H192         8.5390     0.5520     7.5410 h1         1 CS5       0.012200
     71 H22          3.0700    -1.3280     7.8050 ha         1 CS5       0.119500
     72 H24         -0.4600    -3.4320     6.6260 ha         1 CS5       0.133000
     73 H26          2.6850    -2.7780     3.8070 ha         1 CS5       0.119500
     74 H27         10.7340     0.4510     6.5050 ha         1 CS5       0.112000
     75 H28         12.8700     1.6150     6.1170 ha         1 CS5       0.101000
     76 H29         12.9880     4.0710     6.2950 ha         1 CS5       0.120000
     77 H31          8.8180     4.1960     7.2440 ha         1 CS5       0.115000
     78 H321        12.9650     5.8730     7.3570 h1         1 CS5      -0.002300
     79 H322        12.5750     6.0140     5.6370 h1         1 CS5      -0.002300
     80 H323        12.1560     7.3240     6.7500 h1         1 CS5      -0.002300
     81 H331         2.2020     1.0150    -1.6810 hc         1 CS5       0.008700
     82 H332         1.6040    -0.6130    -2.0270 hc         1 CS5       0.008700
     83 H333         3.1260    -0.3970    -1.1520 hc         1 CS5       0.008700
@<TRIPOS>BOND
     1     1     2 ar  
     2     1     6 ar  
     3     1    43 1   
     4     2     3 ar  
     5     2    40 1   
     6     3     4 ar  
     7     3    44 1   
     8     4     5 ar  
     9     4    16 1   
    10     5     6 ar  
    11     5    45 1   
    12     6     7 1   
    13     7     8 1   
    14     7     9 2   
    15     8    10 1   
    16     8    13 1   
    17    10    11 1   
    18    10    46 1   
    19    10    47 1   
    20    11    12 1   
    21    11    48 1   
    22    11    49 1   
    23    12    50 1   
    24    12    51 1   
    25    12    52 1   
    26    13    14 1   
    27    13    53 1   
    28    13    54 1   
    29    14    15 1   
    30    14    55 1   
    31    14    56 1   
    32    15    57 1   
    33    15    58 1   
    34    15    59 1   
    35    16    17 1   
    36    16    18 2   
    37    17    19 1   
    38    17    60 1   
    39    19    20 1   
    40    19    21 1   
    41    19    61 1   
    42    20    22 1   
    43    20    23 1   
    44    20    62 1   
    45    21    27 1   
    46    21    63 1   
    47    21    64 1   
    48    22    65 1   
    49    23    24 1   
    50    23    66 1   
    51    23    67 1   
    52    24    25 1   
    53    24    68 1   
    54    25    26 1   
    55    25    69 1   
    56    25    70 1   
    57    26    33 ar  
    58    26    37 ar  
    59    27    28 ar  
    60    27    32 ar  
    61    28    29 ar  
    62    28    71 1   
    63    29    30 ar  
    64    29    41 1   
    65    30    31 ar  
    66    30    72 1   
    67    31    32 ar  
    68    31    42 1   
    69    32    73 1   
    70    33    34 ar  
    71    33    74 1   
    72    34    35 ar  
    73    34    75 1   
    74    35    36 ar  
    75    35    76 1   
    76    36    37 ar  
    77    36    38 1   
    78    37    77 1   
    79    38    39 1   
    80    39    78 1   
    81    39    79 1   
    82    39    80 1   
    83    40    81 1   
    84    40    82 1   
    85    40    83 1   
@<TRIPOS>SUBSTRUCTURE
     1 CS5         1 TEMP              0 ****  ****    0 ROOT
