@<TRIPOS>MOLECULE
molecule
   87    90     1     0     0
SMALL
bcc


@<TRIPOS>ATOM
      1 F1           0.0000     0.0000     0.0000 f          1 CS7      -0.138400
      2 F2           3.0910     0.0020    -3.5900 f          1 CS7      -0.138400
      3 N1           5.6740     2.1030     0.1230 ns         1 CS7      -0.584900
      4 C1           5.1530     1.4410     1.3220 c3         1 CS7       0.120700
      5 C2           6.2260     1.4410     2.4120 c3         1 CS7       0.134100
      6 C3           5.6420     0.8630     3.7030 c3         1 CS7       0.135500
      7 O1           7.3340     0.6430     1.9910 oh         1 CS7      -0.602800
      8 N2           4.5860     1.7550     4.2460 n7         1 CS7      -0.790200
      9 C4           4.4880     1.4350     5.6870 c3         1 CS7       0.118800
     10 C5           5.8520     0.8630     6.1150 c3         1 CS7       0.109100
     11 C6           6.7080     0.8510     4.8270 c3         1 CS7      -0.111400
     12 C8           3.6290     0.0000     0.0000 ca         1 CS7      -0.019300
     13 C9           2.3240     0.0000     0.4560 ca         1 CS7      -0.173500
     14 C10          1.2750     0.0010    -0.4470 ca         1 CS7       0.165900
     15 C11          1.5330     0.0020    -1.8070 ca         1 CS7      -0.207000
     16 C12          2.8390     0.0020    -2.2630 ca         1 CS7       0.165900
     17 C13          3.8870     0.0070    -1.3580 ca         1 CS7      -0.173500
     18 C14          4.9800     4.5530    -4.0130 ca         1 CS7      -0.144600
     19 C15          6.3590     4.5880    -4.2340 ca         1 CS7      -0.103000
     20 C16          7.2220     4.0050    -3.3290 ca         1 CS7      -0.101300
     21 C17          6.7280     3.3810    -2.1990 ca         1 CS7      -0.093000
     22 C18          5.3520     3.3380    -1.9660 ca         1 CS7      -0.150600
     23 C19          4.4770     3.9310    -2.8730 ca         1 CS7      -0.021000
     24 C22          8.7080     4.0470    -3.5730 c3         1 CS7      -0.046800
     25 N3           4.3240     6.4090    -5.4700 n          1 CS7      -0.488800
     26 O3           3.0600     4.5870    -5.3440 o          1 CS7      -0.591100
     27 O4           6.4530     1.7020     7.1040 os         1 CS7      -0.419600
     28 C23          6.1390     1.3330     8.4480 c3         1 CS7       0.184700
     29 C24          6.8220     2.2790     9.4010 ca         1 CS7      -0.091300
     30 C25          8.0950     1.9980     9.8610 ca         1 CS7      -0.106000
     31 C26          8.7210     2.8660    10.7340 ca         1 CS7      -0.131500
     32 C27          8.0750     4.0160    11.1490 ca         1 CS7      -0.120000
     33 C28          6.8030     4.2980    10.6890 ca         1 CS7      -0.131500
     34 C29          6.1780     3.4320     9.8110 ca         1 CS7      -0.106000
     35 C30          5.5880     7.0700    -5.1380 c3         1 CS7       0.099500
     36 C31          6.5830     6.8730    -6.2840 c3         1 CS7      -0.109900
     37 C32          7.9430     7.4450    -5.8820 c3         1 CS7      -0.093600
     38 C33          3.3480     7.0830    -6.3300 c3         1 CS7       0.099500
     39 C34          2.3940     7.9110    -5.4660 c3         1 CS7      -0.109900
     40 C35          1.3760     8.6160    -6.3650 c3         1 CS7      -0.093600
     41 HN1          6.6620     2.1640    -0.0250 hn         1 CS7       0.313500
     42 H1           4.2790     1.9740     1.6770 h1         1 CS7       0.105700
     43 H2           6.5600     2.4560     2.5900 h1         1 CS7       0.040700
     44 H3           5.2500    -0.1330     3.5400 h1         1 CS7       0.090700
     45 HO1          8.1310     1.1360     2.0870 ho         1 CS7       0.404000
     46 HN2          4.8650     2.7100     4.1350 hn         1 CS7       0.352800
     47 H41          3.7120     0.6970     5.8480 h1         1 CS7       0.063200
     48 H42          4.2730     2.3350     6.2500 h1         1 CS7       0.063200
     49 H5           5.7310    -0.1450     6.4930 h1         1 CS7       0.047700
     50 H61          7.3300     1.7370     4.7740 hc         1 CS7       0.063200
     51 H62          7.3070    -0.0500     4.7760 hc         1 CS7       0.063200
     52 H71          4.4690    -0.5160     1.8870 hc         1 CS7       0.064700
     53 H72          5.6230    -0.5070     0.5470 hc         1 CS7       0.064700
     54 H9           2.1220    -0.0010     1.5200 ha         1 CS7       0.145000
     55 H11          0.7120    -0.0350    -2.5130 ha         1 CS7       0.156000
     56 H13          4.9100     0.0120    -1.7150 ha         1 CS7       0.145000
     57 H15          6.7530     5.0740    -5.1190 ha         1 CS7       0.154000
     58 H17          7.4100     2.9230    -1.4930 ha         1 CS7       0.125000
     59 H19          3.4080     3.9000    -2.6970 ha         1 CS7       0.176000
     60 H221         8.9030     3.9270    -4.6320 hc         1 CS7       0.044700
     61 H222         9.1030     4.9980    -3.2390 hc         1 CS7       0.044700
     62 H223         9.1870     3.2440    -3.0250 hc         1 CS7       0.044700
     63 H231         5.0670     1.3840     8.5950 h1         1 CS7       0.031200
     64 H232         6.4820     0.3230     8.6340 h1         1 CS7       0.031200
     65 H25          8.6020     1.0970     9.5360 ha         1 CS7       0.132000
     66 H26          9.7190     2.6460    11.0950 ha         1 CS7       0.131000
     67 H27          8.5660     4.6960    11.8350 ha         1 CS7       0.130000
     68 H28          6.2970     5.2000    11.0110 ha         1 CS7       0.131000
     69 H29          5.1810     3.6530     9.4500 ha         1 CS7       0.132000
     70 H301         5.4140     8.1280    -4.9890 h1         1 CS7       0.059700
     71 H302         5.9930     6.6390    -4.2300 h1         1 CS7       0.059700
     72 H311         6.2230     7.3860    -7.1670 hc         1 CS7       0.050450
     73 H312         6.6850     5.8160    -6.4970 hc         1 CS7       0.050450
     74 H321         7.9610     7.6160    -4.8120 hc         1 CS7       0.036200
     75 H322         8.1080     8.3820    -6.4000 hc         1 CS7       0.036200
     76 H323         8.7240     6.7430    -6.1490 hc         1 CS7       0.036200
     77 H331         3.8670     7.7360    -7.0220 h1         1 CS7       0.059700
     78 H332         2.7840     6.3440    -6.8850 h1         1 CS7       0.059700
     79 H341         2.9590     8.6500    -4.9110 hc         1 CS7       0.050450
     80 H342         1.8750     7.2580    -4.7750 hc         1 CS7       0.050450
     81 H351         0.6950     9.1960    -5.7530 hc         1 CS7       0.036200
     82 H352         1.8940     9.2740    -7.0520 hc         1 CS7       0.036200
     83 H353         0.8160     7.8770    -6.9260 hc         1 CS7       0.036200
     84 C7           4.7710    -0.0010     0.9830 c3         1 CS7      -0.044100
     85 C21          4.8250     2.6710    -0.7560 c          1 CS7       0.672700
     86 C20          4.0580     5.1800    -4.9840 c          1 CS7       0.675700
     87 O2           3.6270     2.6340    -0.5540 o          1 CS7      -0.592100
@<TRIPOS>BOND
     1     1    14 1
     2     2    16 1
     3     3     4 1
     4     3    85 1
     5     3    41 1
     6     4    84 1
     7     4     5 1
     8     4    42 1
     9     5     7 1
    10     5     6 1
    11     5    43 1
    12     6    11 1
    13     6     8 1
    14     6    44 1
    15     7    45 1
    16     8     9 1
    17     8    46 1
    18     9    10 1
    19     9    47 1
    20     9    48 1
    21    10    11 1
    22    10    27 1
    23    10    49 1
    24    11    50 1
    25    11    51 1
    26    84    12 1
    27    84    52 1
    28    84    53 1
    29    12    17 ar
    30    12    13 ar
    31    13    14 ar
    32    13    54 1
    33    14    15 ar
    34    15    16 ar
    35    15    55 1
    36    16    17 ar
    37    17    56 1
    38    18    86 1
    39    18    23 ar
    40    18    19 ar
    41    19    20 ar
    42    19    57 1
    43    20    21 ar
    44    20    24 1
    45    21    22 ar
    46    21    58 1
    47    22    23 ar
    48    22    85 1
    49    23    59 1
    50    86    25 1
    51    86    26 2
    52    85    87 2
    53    24    60 1
    54    24    61 1
    55    24    62 1
    56    25    38 1
    57    25    35 1
    58    27    28 1
    59    28    29 1
    60    28    63 1
    61    28    64 1
    62    29    34 ar
    63    29    30 ar
    64    30    31 ar
    65    30    65 1
    66    31    32 ar
    67    31    66 1
    68    32    33 ar
    69    32    67 1
    70    33    34 ar
    71    33    68 1
    72    34    69 1
    73    35    36 1
    74    35    70 1
    75    35    71 1
    76    36    37 1
    77    36    72 1
    78    36    73 1
    79    37    74 1
    80    37    75 1
    81    37    76 1
    82    38    39 1
    83    38    77 1
    84    38    78 1
    85    39    40 1
    86    39    79 1
    87    39    80 1
    88    40    81 1
    89    40    82 1
    90    40    83 1
@<TRIPOS>SUBSTRUCTURE
     1 CS7         1 TEMP              0 ****  ****    0 ROOT
