@<TRIPOS>MOLECULE
CS9
   84    87     1     0     0
SMALL
bcc


@<TRIPOS>ATOM
      1 C1           0.0000     0.0000     0.0000 ca         1 CS9      -0.095000
      2 C2           1.3810     0.0000     0.0000 ca         1 CS9      -0.102300
      3 C3           2.0770     0.0000     1.1930 ca         1 CS9      -0.074000
      4 C4           1.3880    -0.0000     2.4070 ca         1 CS9      -0.161600
      5 C5          -0.0050     0.0000     2.4140 ca         1 CS9       0.015000
      6 C6          -0.7020     0.0010     1.2070 ca         1 CS9      -0.149600
      7 C7          -2.1800     0.0030     1.2050 c          1 CS9       0.608700
      8 N1          -2.8520     0.8610     0.4130 n          1 CS9      -0.147800
      9 O1          -2.7900    -0.7710     1.9180 o          1 CS9      -0.631100
     10 C8          -4.3100     0.9640     0.5140 c3         1 CS9       0.032000
     11 C9          -4.6750     2.0310     1.5470 c3         1 CS9      -0.055900
     12 C10         -6.1990     2.1390     1.6540 c3         1 CS9       0.008400
     13 C11         -2.1250     1.6920    -0.5500 c3         1 CS9       0.032000
     14 C12         -2.2130     1.0580    -1.9400 c3         1 CS9      -0.055900
     15 C13         -1.3330     1.8430    -2.9150 c3         1 CS9       0.008400
     16 C30          2.1310    -0.0020    -1.3060 c3         1 CS9       0.065200
     17 C14          2.1350    -0.0010     3.6830 c          1 CS9       0.595700
     18 N2           3.4830    -0.0030     3.6750 ns         1 CS9      -0.198900
     19 O2           1.5340    -0.0000     4.7400 o          1 CS9      -0.636100
     20 C15          4.2220    -0.0030     4.9390 c3         1 CS9       0.008700
     21 C16          5.6100     0.6050     4.7190 c3         1 CS9       0.174100
     22 C17          4.3710    -1.4410     5.4420 c3         1 CS9       0.009900
     23 O3           6.3620    -0.2320     3.8390 oh         1 CS9      -0.579800
     24 C19          3.0110    -1.9980     5.7760 ca         1 CS9      -0.025300
     25 C21          2.4950    -1.8450     7.0490 ca         1 CS9      -0.140500
     26 C22          1.2460    -2.3580     7.3570 ca         1 CS9       0.140900
     27 C23          0.5140    -3.0220     6.3890 ca         1 CS9      -0.165000
     28 C24          1.0310    -3.1750     5.1140 ca         1 CS9       0.140900
     29 C25          2.2790    -2.6580     4.8080 ca         1 CS9      -0.140500
     30 F2           0.7430    -2.2080     8.6020 f          1 CS9      -0.127900
     31 F1           0.3180    -3.8250     4.1680 f          1 CS9      -0.127900
     32 C26          7.9710     1.9800     7.2910 c3         1 CS9       0.148100
     33 C18          6.5600     2.3930     7.7630 c3         1 CS9       0.114800
     34 N3           5.5900     1.6100     6.9750 n7         1 CS9      -0.580200
     35 C20          7.7110     1.4060     5.8730 c3         1 CS9      -0.052400
     36 C27          6.3360     0.7180     6.0610 c3         1 CS9       0.093500
     37 O4           8.8340     3.1160     7.2250 os         1 CS9      -0.296900
     38 C31          9.5290     3.4300     8.3520 ca         1 CS9       0.147100
     39 C32          9.3610     2.6750     9.5030 ca         1 CS9      -0.178000
     40 C33         10.0680     2.9950    10.6450 ca         1 CS9      -0.056500
     41 C34         10.9430     4.0660    10.6420 ca         1 CS9      -0.142000
     42 C35         11.1110     4.8190     9.4950 ca         1 CS9      -0.056500
     43 C36         10.4110     4.5000     8.3480 ca         1 CS9      -0.178000
     44 H1          -0.5400     0.0000    -0.9390 ha         1 CS9       0.137000
     45 H3           3.1610    -0.0000     1.1860 ha         1 CS9       0.103000
     46 H5          -0.5450     0.0010     3.3530 ha         1 CS9       0.143000
     47 H81         -4.7180     0.0090     0.8220 h1         1 CS9       0.036700
     48 H82         -4.7210     1.2380    -0.4500 h1         1 CS9       0.036700
     49 H91         -4.2670     2.9860     1.2400 hc         1 CS9       0.022450
     50 H92         -4.2650     1.7570     2.5110 hc         1 CS9       0.022450
     51 H101        -6.4570     2.8820     2.3990 hc         1 CS9       0.003533
     52 H102        -6.6080     2.4320     0.6950 hc         1 CS9       0.003533
     53 H103        -6.6090     1.1790     1.9440 hc         1 CS9       0.003533
     54 H111        -2.5640     2.6820    -0.5760 h1         1 CS9       0.036700
     55 H112        -1.0860     1.7660    -0.2520 h1         1 CS9       0.036700
     56 H121        -3.2410     1.0800    -2.2820 hc         1 CS9       0.022450
     57 H122        -1.8710     0.0310    -1.8910 hc         1 CS9       0.022450
     58 H131        -0.6210     2.4410    -2.3580 hc         1 CS9       0.003533
     59 H132        -1.9550     2.4930    -3.5200 hc         1 CS9       0.003533
     60 H133        -0.8010     1.1530    -3.5570 hc         1 CS9       0.003533
     61 H301         3.1060    -0.4520    -1.1620 hc         1 CS9       0.008700
     62 H302         2.2520     1.0170    -1.6550 hc         1 CS9       0.008700
     63 H303         1.5760    -0.5710    -2.0420 hc         1 CS9       0.008700
     64 HN2          3.9780     0.0230     2.8060 hn         1 CS9       0.180500
     65 H15          3.6830     0.5830     5.6740 h1         1 CS9       0.078700
     66 H16          5.5070     1.5900     4.2800 h1         1 CS9       0.006700
     67 H171         4.9930    -1.4510     6.3280 hc         1 CS9       0.037700
     68 H172         4.8300    -2.0470     4.6710 hc         1 CS9       0.037700
     69 HO3          6.7700     0.2970     3.1730 ho         1 CS9       0.393000
     70 H21          3.0680    -1.3250     7.8070 ha         1 CS9       0.121500
     71 H23         -0.4630    -3.4250     6.6290 ha         1 CS9       0.132000
     72 H25          2.6840    -2.7780     3.8100 ha         1 CS9       0.121500
     73 H26          8.3810     1.2170     7.9410 h1         1 CS9       0.039700
     74 H182         6.4450     2.1680     8.8160 h1         1 CS9       0.029200
     75 HN3          5.0150     2.2310     6.4410 hn         1 CS9       0.258800
     76 H201         7.6470     2.2020     5.1400 hc         1 CS9       0.032700
     77 H202         8.4700     0.6820     5.6050 hc         1 CS9       0.032700
     78 H27          6.4630    -0.2590     6.5110 h1         1 CS9       0.063700
     79 H32          8.6760     1.8360     9.5070 ha         1 CS9       0.120000
     80 H33          9.9370     2.4060    11.5450 ha         1 CS9       0.102500
     81 H34         11.4950     4.3160    11.5400 ha         1 CS9       0.106000
     82 H35         11.7990     5.6570     9.4930 ha         1 CS9       0.102500
     83 H36         10.5430     5.0910     7.4500 ha         1 CS9       0.120000
     84 H181         6.4080     3.4510     7.5870 h1         1 CS9       0.029200
@<TRIPOS>BOND
     1     1     2 ar  
     2     1     6 ar  
     3     1    44 1   
     4     2     3 ar  
     5     2    16 1   
     6     3     4 ar  
     7     3    45 1   
     8     4     5 ar  
     9     4    17 1   
    10     5     6 ar  
    11     5    46 1   
    12     6     7 1   
    13     7     8 1   
    14     7     9 2   
    15     8    10 1   
    16     8    13 1   
    17    10    11 1   
    18    10    47 1   
    19    10    48 1   
    20    11    12 1   
    21    11    49 1   
    22    11    50 1   
    23    12    51 1   
    24    12    52 1   
    25    12    53 1   
    26    13    14 1   
    27    13    54 1   
    28    13    55 1   
    29    14    15 1   
    30    14    56 1   
    31    14    57 1   
    32    15    58 1   
    33    15    59 1   
    34    15    60 1   
    35    16    61 1   
    36    16    62 1   
    37    16    63 1   
    38    17    18 1   
    39    17    19 2   
    40    18    20 1   
    41    18    64 1   
    42    20    21 1   
    43    20    22 1   
    44    20    65 1   
    45    21    23 1   
    46    21    36 1   
    47    21    66 1   
    48    22    24 1   
    49    22    67 1   
    50    22    68 1   
    51    23    69 1   
    52    24    25 ar  
    53    24    29 ar  
    54    25    26 ar  
    55    25    70 1   
    56    26    27 ar  
    57    26    30 1   
    58    27    28 ar  
    59    27    71 1   
    60    28    29 ar  
    61    28    31 1   
    62    29    72 1   
    63    32    33 1   
    64    32    35 1   
    65    32    37 1   
    66    32    73 1   
    67    33    34 1   
    68    33    74 1   
    69    33    84 1   
    70    34    36 1   
    71    34    75 1   
    72    35    36 1   
    73    35    76 1   
    74    35    77 1   
    75    36    78 1   
    76    37    38 1   
    77    38    39 ar  
    78    38    43 ar  
    79    39    40 ar  
    80    39    79 1   
    81    40    41 ar  
    82    40    80 1   
    83    41    42 ar  
    84    41    81 1   
    85    42    43 ar  
    86    42    82 1   
    87    43    83 1   
@<TRIPOS>SUBSTRUCTURE
     1 CS9         1 TEMP              0 ****  ****    0 ROOT
