@<TRIPOS>MOLECULE
molecule
   48    49     1     0     0
SMALL
bcc


@<TRIPOS>ATOM
      1 S1           0.0000     0.0000     0.0000 ss         1 CSC      -0.404200
      2 C2           1.8250     0.0000     0.0000 c3         1 CSC       0.108900
      3 C3           2.4570     0.0000     1.3890 c2         1 CSC      -0.287400
      4 C3'          3.8910     0.4740     1.3580 c3         1 CSC       0.211600
      5 C4           1.7950    -0.3700     2.5100 ce         1 CSC       0.088400
      6 C4'          2.3880    -0.2000     3.8450 c          1 CSC       0.890800
      7 O4A          3.0800    -1.3080     4.1710 o          1 CSC      -0.798300
      8 O4B          2.2590     0.7950     4.5290 o          1 CSC      -0.798300
      9 N5           0.5290    -0.8590     2.4560 nj         1 CSC      -0.356000
     10 C6          -0.1090    -1.3160     1.2340 cy         1 CSC       0.164800
     11 C7          -1.4080    -1.3900     2.0570 cy         1 CSC       0.017700
     12 C8          -0.5090    -1.1000     3.2870 c          1 CSC       0.722500
     13 O9          -0.6630    -1.0310     4.4830 o          1 CSC      -0.516500
     14 N10         -2.4350    -0.3570     1.8320 ns         1 CSC      -0.570900
     15 C11         -3.4990    -0.1650     2.7000 c          1 CSC       0.673100
     16 O12         -3.7020    -0.8130     3.7250 o          1 CSC      -0.586100
     17 C13         -4.4260     0.9550     2.2680 c3         1 CSC      -0.157400
     18 C14         -5.5940     1.1570     3.2320 c3         1 CSC      -0.080400
     19 C15         -6.4880     2.3380     2.8220 c3         1 CSC      -0.101400
     20 C16         -7.7120     2.5590     3.7190 c3         1 CSC       0.013500
     21 N17         -7.2640     2.8000     5.1200 nz         1 CSC      -0.810600
     22 C18         -8.5920     3.6960     3.2450 c          1 CSC       0.871600
     23 O19         -8.8170     4.7190     3.8790 o          1 CSC      -0.780800
     24 O20         -9.1150     3.4610     2.0140 o          1 CSC      -0.780800
     25 O1           4.6500    -0.3860     0.5340 os         1 CSC      -0.421900
     26 C1           5.9810    -0.0800     0.4070 c          1 CSC       0.638100
     27 O2           6.5540     0.8590     0.9400 o          1 CSC      -0.538000
     28 C20          6.6570    -1.0730    -0.4920 c3         1 CSC      -0.156100
     29 H11          2.1660    -0.8810    -0.5300 h1         1 CSC       0.063700
     30 H12          2.1660     0.8810    -0.5300 h1         1 CSC       0.063700
     31 H3'1         4.2980     0.4630     2.3630 h1         1 CSC       0.057700
     32 H3'2         3.9310     1.4820     0.9630 h1         1 CSC       0.057700
     33 H6           0.2540    -2.2810     0.9020 h2         1 CSC       0.098700
     34 H7          -1.8130    -2.3940     2.0860 h1         1 CSC       0.082700
     35 H10         -2.3620     0.2270     1.0230 hn         1 CSC       0.334500
     36 H131        -3.8570     1.8760     2.2090 hc         1 CSC       0.067700
     37 H132        -4.8190     0.7240     1.2850 hc         1 CSC       0.067700
     38 H141        -5.2020     1.3420     4.2250 hc         1 CSC       0.042700
     39 H142        -6.1930     0.2550     3.2520 hc         1 CSC       0.042700
     40 H151        -6.8320     2.1710     1.8090 hc         1 CSC       0.083200
     41 H152        -5.8880     3.2410     2.8350 hc         1 CSC       0.083200
     42 H16         -8.3030     1.6510     3.7070 hx         1 CSC       0.096700
     43 H171        -8.0140     3.2040     5.6460 hn         1 CSC       0.439467
     44 H172        -6.9930     1.9320     5.5380 hn         1 CSC       0.439467
     45 H173        -6.4830     3.4260     5.1180 hn         1 CSC       0.439467
     46 H201         7.7170    -0.8530    -0.5400 hc         1 CSC       0.061367
     47 H202         6.2300    -1.0100    -1.4850 hc         1 CSC       0.061367
     48 H203         6.5130    -2.0720    -0.0990 hc         1 CSC       0.061367
@<TRIPOS>BOND
     1     1     2 1
     2     1    10 1
     3     2     3 1
     4     2    29 1
     5     2    30 1
     6     3     4 1
     7     3     5 2
     8     4    25 1
     9     4    31 1
    10     4    32 1
    11     5     6 1
    12     5     9 1
    13     6     7 1
    14     6     8 1
    15     9    10 1
    16     9    12 1
    17    10    11 1
    18    10    33 1
    19    11    12 1
    20    11    14 1
    21    11    34 1
    22    12    13 2
    23    14    15 1
    24    14    35 1
    25    15    16 2
    26    15    17 1
    27    17    18 1
    28    17    36 1
    29    17    37 1
    30    18    19 1
    31    18    38 1
    32    18    39 1
    33    19    20 1
    34    19    40 1
    35    19    41 1
    36    20    21 1
    37    20    22 1
    38    20    42 1
    39    21    43 1
    40    21    44 1
    41    21    45 1
    42    22    23 1
    43    22    24 1
    44    25    26 1
    45    26    27 2
    46    26    28 1
    47    28    46 1
    48    28    47 1
    49    28    48 1
@<TRIPOS>SUBSTRUCTURE
     1 CSC         1 TEMP              0 ****  ****    0 ROOT
