@<TRIPOS>MOLECULE
CSG
   44    45     1     0     0
SMALL
bcc


@<TRIPOS>ATOM
      1 C5           0.0000     0.0000     0.0000 cc         1 CSG      -0.154600
      2 C4           1.4100     0.0000     0.0000 cc         1 CSG      -0.148500
      3 N4           2.1010     0.0020    -1.1890 nz         1 CSG       0.344400
      4 N3           2.0660     0.0000     1.1530 nd         1 CSG      -0.828100
      5 C2           1.4070    -0.0010     2.3100 c          1 CSG       0.743900
      6 O2           2.0330     0.0000     3.3580 o          1 CSG      -0.777500
      7 C6          -0.6550     0.0040     1.1850 cd         1 CSG      -0.384400
      8 N1           0.0610    -0.0010     2.3430 n          1 CSG      -0.031000
      9 C1'         -0.6350     0.0030     3.6330 c3         1 CSG       0.250500
     10 O4'         -0.0910     1.0200     4.5010 os         1 CSG      -0.290600
     11 C2'         -0.3640    -1.3140     4.4040 c3         1 CSG      -0.177500
     12 N2'         -1.3170    -2.3600     4.0070 nz         1 CSG       0.019400
     13 C3'         -0.5970    -0.8830     5.8720 c3         1 CSG       0.149100
     14 O3'         -1.9140    -1.2390     6.2960 oh         1 CSG      -0.637800
     15 C4'         -0.4330     0.6490     5.8470 c3         1 CSG       0.130100
     16 C5'          0.6850     1.0690     6.8030 c3         1 CSG       0.312400
     17 O5'          0.7630     2.4950     6.8480 os         1 CSG      -0.492200
     18 PA           1.8320     3.2870     7.7550 p5         1 CSG       0.982800
     19 O1A          1.5260     3.0080     9.3110 o          1 CSG      -0.675000
     20 O2A          3.1980     2.8190     7.4290 o          1 CSG      -0.675000
     21 O3A          1.7200     4.8650     7.4610 os         1 CSG      -0.498800
     22 PB           2.7050     6.1180     7.6900 p5         1 CSG       1.107800
     23 O1B          3.8000     6.1620     6.5080 o          1 CSG      -0.488500
     24 O2B          3.3910     5.9750     8.9930 o          1 CSG      -0.488500
     25 O3B          1.8500     7.4820     7.6800 os         1 CSG      -0.490800
     26 PG           2.1530     8.9950     8.1400 p5         1 CSG       0.894900
     27 O1G          2.1110     9.0860     9.7470 o          1 CSG      -0.442167
     28 O2G          1.0410     9.9780     7.5180 o          1 CSG      -0.442167
     29 O3G          3.4940     9.3990     7.6590 o          1 CSG      -0.442167
     30 H5          -0.5500     0.0040    -0.9330 ha         1 CSG       0.052000
     31 HN4          1.8600    -0.8140    -1.7160 hn         1 CSG       0.107133
     32 HN4A         3.0850     0.0010    -1.0030 hn         1 CSG       0.107133
     33 H6          -1.7380     0.0040     1.2120 h4         1 CSG       0.087000
     34 H1'         -1.7000     0.1500     3.4980 h2         1 CSG      -0.004300
     35 H2'          0.6590    -1.6390     4.2580 hx         1 CSG       0.140700
     36 HN2'        -1.2910    -3.1060     4.6730 hn         1 CSG       0.194800
     37 HN2A        -1.0700    -2.7110     3.1030 hn         1 CSG       0.194800
     38 H3'          0.1490    -1.3310     6.5180 h1         1 CSG       0.034700
     39 HO3'        -1.8840    -1.5550     7.1840 ho         1 CSG       0.410000
     40 H4'         -1.3650     1.1220     6.1320 h1         1 CSG       0.026700
     41 H5'          0.4750     0.6870     7.7950 h1         1 CSG      -0.010800
     42 H5'A         1.6290     0.6670     6.4540 h1         1 CSG      -0.010800
     43 H43          1.8720     0.8270    -1.7070 hn         1 CSG       0.107133
     44 H2'3        -2.2420    -1.9780     3.9870 hn         1 CSG       0.194800
@<TRIPOS>BOND
     1     1     2 1   
     2     1     7 2   
     3     1    30 1   
     4     2     3 1   
     5     2     4 2   
     6     3    31 1   
     7     3    32 1   
     8     3    43 1   
     9     4     5 1   
    10     5     6 2   
    11     5     8 1   
    12     7     8 1   
    13     7    33 1   
    14     8     9 1   
    15     9    10 1   
    16     9    11 1   
    17     9    34 1   
    18    10    15 1   
    19    11    12 1   
    20    11    13 1   
    21    11    35 1   
    22    12    36 1   
    23    12    37 1   
    24    12    44 1   
    25    13    14 1   
    26    13    15 1   
    27    13    38 1   
    28    14    39 1   
    29    15    16 1   
    30    15    40 1   
    31    16    17 1   
    32    16    41 1   
    33    16    42 1   
    34    17    18 1   
    35    18    19 1   
    36    18    20 1   
    37    18    21 1   
    38    21    22 1   
    39    22    23 1   
    40    22    24 1   
    41    22    25 1   
    42    25    26 1   
    43    26    27 1   
    44    26    28 1   
    45    26    29 1   
@<TRIPOS>SUBSTRUCTURE
     1 CSG         1 TEMP              0 ****  ****    0 ROOT
