@<TRIPOS>MOLECULE
molecule
   44    45     1     0     0
SMALL
bcc


@<TRIPOS>ATOM
      1 C5           0.0000     0.0000     0.0000 cc         1 CSG      -0.210600
      2 C4           1.4100     0.0000     0.0000 cc         1 CSG       0.139500
      3 N4           2.1010     0.0020    -1.1890 nz         1 CSG      -0.623600
      4 N3           2.0660     0.0000     1.1530 nd         1 CSG      -0.855100
      5 C2           1.4070    -0.0010     2.3100 c          1 CSG       0.839900
      6 O2           2.0330     0.0000     3.3580 o          1 CSG      -0.725500
      7 C6          -0.6550     0.0040     1.1850 cd         1 CSG      -0.244400
      8 N1           0.0610    -0.0010     2.3430 n          1 CSG      -0.405000
      9 C1'         -0.6350     0.0030     3.6330 c3         1 CSG       0.320500
     10 O4'         -0.0910     1.0200     4.5010 os         1 CSG      -0.300600
     11 C2'         -0.3640    -1.3140     4.4040 c3         1 CSG       0.020500
     12 N2'         -1.3170    -2.3600     4.0070 nz         1 CSG      -0.785600
     13 C3'         -0.5970    -0.8830     5.8720 c3         1 CSG       0.083100
     14 O3'         -1.9140    -1.2390     6.2960 oh         1 CSG      -0.651800
     15 C4'         -0.4330     0.6490     5.8470 c3         1 CSG       0.114100
     16 C5'          0.6850     1.0690     6.8030 c3         1 CSG       0.237400
     17 O5'          0.7630     2.4950     6.8480 os         1 CSG      -0.589200
     18 PA           1.8320     3.2870     7.7550 p5         1 CSG       1.439800
     19 O1A          1.5260     3.0080     9.3110 o          1 CSG      -0.830500
     20 O2A          3.1980     2.8190     7.4290 o          1 CSG      -0.830500
     21 O3A          1.7200     4.8650     7.4610 os         1 CSG      -0.719800
     22 PB           2.7050     6.1180     7.6900 p5         1 CSG       1.570800
     23 O1B          3.8000     6.1620     6.5080 o          1 CSG      -0.655500
     24 O2B          3.3910     5.9750     8.9930 o          1 CSG      -0.655500
     25 O3B          1.8500     7.4820     7.6800 os         1 CSG      -0.709800
     26 PG           2.1530     8.9950     8.1400 p5         1 CSG       1.277900
     27 O1G          2.1110     9.0860     9.7470 o          1 CSG      -0.557500
     28 O2G          1.0410     9.9780     7.5180 o          1 CSG      -0.557500
     29 O3G          3.4940     9.3990     7.6590 o          1 CSG      -0.557500
     30 H5          -0.5500     0.0040    -0.9330 ha         1 CSG       0.065000
     31 HN4          1.8600    -0.8140    -1.7160 hn         1 CSG       0.375133
     32 HN4A         3.0850     0.0010    -1.0030 hn         1 CSG       0.375133
     33 H6          -1.7380     0.0040     1.2120 h4         1 CSG       0.092000
     34 H1'         -1.7000     0.1500     3.4980 h2         1 CSG       0.031700
     35 H2'          0.6590    -1.6390     4.2580 hx         1 CSG       0.166700
     36 HN2'        -1.2910    -3.1060     4.6730 hn         1 CSG       0.429800
     37 HN2A        -1.0700    -2.7110     3.1030 hn         1 CSG       0.429800
     38 H3'          0.1490    -1.3310     6.5180 h1         1 CSG       0.073700
     39 HO3'        -1.8840    -1.5550     7.1840 ho         1 CSG       0.423000
     40 H4'         -1.3650     1.1220     6.1320 h1         1 CSG       0.069700
     41 H5'          0.4750     0.6870     7.7950 h1         1 CSG       0.041200
     42 H5'A         1.6290     0.6670     6.4540 h1         1 CSG       0.041200
     43 H43          1.8720     0.8270    -1.7070 hn         1 CSG       0.375133
     44 H2'3        -2.2420    -1.9780     3.9870 hn         1 CSG       0.429800
@<TRIPOS>BOND
     1     7     1 2
     2     1     2 1
     3     1    30 1
     4     2     4 2
     5     2     3 1
     6     3    31 1
     7     3    32 1
     8     5     4 1
     9     8     5 1
    10     6     5 2
    11     7     8 1
    12     7    33 1
    13     9     8 1
    14    10     9 1
    15     9    11 1
    16     9    34 1
    17    10    15 1
    18    12    11 1
    19    11    13 1
    20    11    35 1
    21    12    36 1
    22    12    37 1
    23    15    13 1
    24    13    14 1
    25    13    38 1
    26    14    39 1
    27    16    15 1
    28    15    40 1
    29    16    17 1
    30    16    41 1
    31    16    42 1
    32    17    18 1
    33    19    18 1
    34    20    18 1
    35    18    21 1
    36    21    22 1
    37    24    22 1
    38    22    23 1
    39    22    25 1
    40    26    25 1
    41    29    26 1
    42    26    28 1
    43    26    27 1
    44    43     3 1
    45    44    12 1
@<TRIPOS>SUBSTRUCTURE
     1 CSG         1 TEMP              0 ****  ****    0 ROOT
