@<TRIPOS>MOLECULE
molecule
   25    25     1     0     0
SMALL
bcc


@<TRIPOS>ATOM
      1 NE           0.0000     0.0000     0.0000 nu         1 CSI      -0.939200
      2 CD2          1.3860     0.0000     0.0000 c2         1 CSI       0.875100
      3 CD1         -0.6780    -0.8860     0.9600 c3         1 CSI       0.211800
      4 NH           2.0720    -0.0000    -1.1080 n2         1 CSI      -0.992100
      5 CB           1.4460    -0.8850     2.2760 c3         1 CSI       0.238500
      6 CG1         -0.0690    -0.6610     2.3490 c3         1 CSI      -0.112400
      7 NG2          2.0040     0.0000     1.2410 nu         1 CSI      -0.957200
      8 N            3.5380    -0.6560     3.5240 ns         1 CSI      -0.615900
      9 CA           2.0800    -0.5560     3.6290 c3         1 CSI       0.019700
     10 C            1.5840    -1.5300     4.6670 c          1 CSI       0.889600
     11 O            2.3670    -2.2350     5.2570 o          1 CSI      -0.861300
     12 OXT          0.2710    -1.6140     4.9350 o          1 CSI      -0.861300
     13 HE          -0.5200     0.5790    -0.6290 hn         1 CSI       0.424800
     14 HD13        -1.7030    -0.5380     1.0210 h1         1 CSI       0.034700
     15 HD12        -0.4160    -1.8970     0.6750 h1         1 CSI       0.034700
     16 HH           3.0730    -0.0000    -1.0770 hn         1 CSI       0.389400
     17 HB           1.6480    -1.9180     2.0170 h1         1 CSI       0.033700
     18 HG13        -0.2060     0.3900     2.5710 hc         1 CSI       0.088700
     19 HG12        -0.4590    -1.4510     2.9800 hc         1 CSI       0.088700
     20 HG2          2.7990     0.5790     1.4260 hn         1 CSI       0.461800
     21 H            3.9490    -1.2750     2.8530 hn         1 CSI       0.270500
     22 HCA          1.8070     0.4520     3.9200 h1         1 CSI       0.069700
     23 O3           3.8240     0.7530     5.2160 o          1 CSI      -0.900300
     24 O4           5.6640    -0.0510     4.2700 o          1 CSI      -0.900300
     25 C7           4.3240     0.0410     4.3680 c          1 CSI       1.007600
@<TRIPOS>BOND
     1     1     2 1
     2     1     3 1
     3     1    13 1
     4     2     4 2
     5     2     7 1
     6     3     6 1
     7     3    14 1
     8     3    15 1
     9     4    16 1
    10     5     6 1
    11     5     7 1
    12     5     9 1
    13     5    17 1
    14     6    18 1
    15     6    19 1
    16     7    20 1
    17     8     9 1
    18     8    21 1
    19     9    10 1
    20     9    22 1
    21    10    11 1
    22    10    12 1
    23    25    23 1
    24    25    24 1
    25     8    25 1
@<TRIPOS>SUBSTRUCTURE
     1 CSI         1 TEMP              0 ****  ****    0 ROOT
