@<TRIPOS>MOLECULE
molecule
   19    19     1     0     0
SMALL
bcc


@<TRIPOS>ATOM
      1 S1           0.0000     0.0000     0.0000 s6         1 CSN       1.524300
      2 O4           1.5220     0.0000     0.0000 os         1 CSN      -0.472800
      3 O3          -0.3860     0.0000     1.3680 o          1 CSN      -0.712867
      4 O2          -0.3870    -0.9700    -0.9630 o          1 CSN      -0.712867
      5 O1          -0.4550     1.3410    -0.5560 o          1 CSN      -0.712867
      6 O7           1.9390     2.6920    -0.4110 oh         1 CSN      -0.455100
      7 O6           2.5450    -0.7160     4.8630 o          1 CSN      -0.228500
      8 O5           3.0800     1.1850     5.6050 o          1 CSN      -0.228500
      9 C6           2.1170     0.2490     2.2890 ca         1 CSN      -0.026000
     10 N1           2.7260     0.4750     4.6810 no         1 CSN       0.304200
     11 C3           2.5300     2.9580     1.8770 ca         1 CSN      -0.190000
     12 C1           1.9150     0.7940     1.0310 ca         1 CSN       0.123100
     13 C4           2.7230     2.4090     3.1310 ca         1 CSN      -0.074000
     14 C2           2.1290     2.1540     0.8230 ca         1 CSN       0.164100
     15 C5           2.5180     1.0570     3.3370 ca         1 CSN      -0.173200
     16 HO7          2.7640     2.9960    -0.7520 ho         1 CSN       0.404000
     17 H6           1.9900    -0.8150     2.4450 ha         1 CSN       0.178000
     18 H3           2.6920     4.0170     1.7190 ha         1 CSN       0.141000
     19 H4           3.0370     3.0400     3.9540 ha         1 CSN       0.149000
@<TRIPOS>BOND
     1     1     2 1
     2     1     3 1
     3     1     4 1
     4     1     5 1
     5     2    12 1
     6     6    14 1
     7     6    16 1
     8     7    10 1
     9     8    10 1
    10     9    12 ar
    11     9    15 ar
    12     9    17 1
    13    10    15 1
    14    11    13 ar
    15    11    14 ar
    16    11    18 1
    17    12    14 ar
    18    13    15 ar
    19    13    19 1
@<TRIPOS>SUBSTRUCTURE
     1 CSN         1 TEMP              0 ****  ****    0 ROOT
