@<TRIPOS>MOLECULE
molecule
   29    30     1     0     0
SMALL
bcc


@<TRIPOS>ATOM
      1 O            0.0000     0.0000     0.0000 o          1 CT0      -0.523100
      2 C1           1.2140     0.0000     0.0000 c          1 CT0       0.583100
      3 N2           1.8880     0.0000     1.1660 ns         1 CT0      -0.495400
      4 C3           1.1940     0.0020     2.3690 cc         1 CT0       0.602300
      5 N           -0.1090     0.0070     2.5730 nd         1 CT0      -0.726000
      6 S            1.8190     0.0020     3.9880 ss         1 CT0      -0.285300
      7 C5           0.2500     0.0030     4.8430 cc         1 CT0      -0.169400
      8 C4          -0.6090     0.0020     3.7930 cd         1 CT0       0.387200
      9 O2           3.1740    -0.0020    -1.2930 o          1 CT0      -0.608100
     10 C6           1.9600    -0.0020    -1.2930 c          1 CT0       0.596100
     11 N7           1.2860    -0.0080    -2.4610 ns         1 CT0      -0.547900
     12 C8           2.0190    -0.0150    -3.7290 c3         1 CT0       0.110700
     13 C9           1.1470    -0.6310    -4.8380 c3         1 CT0      -0.096900
     14 C10          2.3310     1.4310    -4.1680 c3         1 CT0      -0.096900
     15 C11          2.1730     1.4040    -5.7080 c3         1 CT0      -0.085400
     16 C12          0.9600     0.4610    -5.9110 c3         1 CT0      -0.085400
     17 HN2          2.8880     0.0010     1.1660 hn         1 CT0       0.362500
     18 H5           0.0410     0.0010     5.9060 h4         1 CT0       0.197000
     19 H4          -1.6800     0.0040     3.9530 h4         1 CT0       0.044100
     20 HN7          0.2860    -0.0390    -2.4610 hn         1 CT0       0.338500
     21 H8           2.9400    -0.5770    -3.6280 h1         1 CT0       0.082700
     22 H91          1.6490    -1.4900    -5.2680 hc         1 CT0       0.054450
     23 H92          0.1850    -0.9210    -4.4330 hc         1 CT0       0.054450
     24 H101         1.6210     2.1210    -3.7280 hc         1 CT0       0.054450
     25 H102         3.3450     1.6970    -3.8970 hc         1 CT0       0.054450
     26 H111         1.9540     2.3950    -6.0880 hc         1 CT0       0.048700
     27 H112         3.0590     0.9930    -6.1760 hc         1 CT0       0.048700
     28 H121         0.0340     0.9970    -5.7470 hc         1 CT0       0.048700
     29 H122         0.9830     0.0240    -6.9020 hc         1 CT0       0.048700
@<TRIPOS>BOND
     1     1     2 2
     2     2     3 1
     3     2    10 1
     4     3     4 1
     5     3    17 1
     6     4     5 2
     7     4     6 1
     8     5     8 1
     9     6     7 1
    10     7     8 2
    11     7    18 1
    12     8    19 1
    13     9    10 2
    14    10    11 1
    15    11    12 1
    16    11    20 1
    17    12    13 1
    18    12    14 1
    19    12    21 1
    20    13    16 1
    21    13    22 1
    22    13    23 1
    23    14    15 1
    24    14    24 1
    25    14    25 1
    26    15    16 1
    27    15    26 1
    28    15    27 1
    29    16    28 1
    30    16    29 1
@<TRIPOS>SUBSTRUCTURE
     1 CT0         1 TEMP              0 ****  ****    0 ROOT
