@<TRIPOS>MOLECULE
CT1
   49    49     1     0     0
SMALL
bcc


@<TRIPOS>ATOM
      1 C1           0.0000     0.0000     0.0000 c3         1 CT1       0.006900
      2 C2           1.5300     0.0000     0.0000 c3         1 CT1      -0.027400
      3 C3           2.0400     0.0000     1.4430 c3         1 CT1      -0.034400
      4 C4           3.5690    -0.0000     1.4430 c3         1 CT1      -0.028400
      5 N8           3.6910     1.2510     3.5410 ns         1 CT1      -0.149900
      6 C9           3.5630     1.2990     4.8820 c          1 CT1       0.693100
      7 O10          3.7700     0.3030     5.5480 o          1 CT1      -0.666000
      8 O11          3.2070     2.4490     5.4850 os         1 CT1      -0.418900
      9 C12          3.0690     2.5000     6.9290 c3         1 CT1       0.213100
     10 C13          2.0130     3.5410     7.3040 c3         1 CT1       0.015900
     11 C14          0.6670     3.0970     6.7920 ca         1 CT1      -0.090300
     12 C15          0.2490     3.4760     5.5290 ca         1 CT1      -0.093500
     13 C16         -0.9830     3.0660     5.0570 ca         1 CT1      -0.101000
     14 C17         -1.8020     2.2840     5.8500 ca         1 CT1      -0.104000
     15 C18         -1.3880     1.9110     7.1150 ca         1 CT1      -0.101000
     16 C19         -0.1520     2.3170     7.5850 ca         1 CT1      -0.093500
     17 C20          4.4110     2.8870     7.5550 c3         1 CT1      -0.075700
     18 C21          5.4680     1.8460     7.1790 c3         1 CT1      -0.010100
     19 C22          4.8400     4.2600     7.0350 c3         1 CT1      -0.010100
     20 C6           5.5810    -0.1240     2.8890 c          1 CT1       0.642900
     21 C5           4.0780    -0.0000     2.8870 c3         1 CT1      -0.098300
     22 H11         -0.3610    -0.0600    -1.0200 hc         1 CT1       0.002367
     23 H12A        -0.3610     0.9130     0.4580 hc         1 CT1       0.002367
     24 H13         -0.3610    -0.8530     0.5610 hc         1 CT1       0.002367
     25 H21          1.8920    -0.8850    -0.5110 hc         1 CT1       0.012700
     26 H22          1.8920     0.8850    -0.5110 hc         1 CT1       0.012700
     27 H31          1.6790    -0.8850     1.9540 hc         1 CT1       0.022200
     28 H32          1.6790     0.8850     1.9540 hc         1 CT1       0.022200
     29 H41          3.9300     0.8840     0.9330 hc         1 CT1       0.024200
     30 H42          3.9300    -0.8850     0.9330 hc         1 CT1       0.024200
     31 HN8          3.5540     2.0790     2.9960 hn         1 CT1       0.178500
     32 H12          2.7650     1.5280     7.2970 h1         1 CT1       0.043700
     33 H131         1.9730     3.6430     8.3820 hc         1 CT1       0.032700
     34 H132         2.2720     4.4940     6.8610 hc         1 CT1       0.032700
     35 H15          0.8910     4.0880     4.9070 ha         1 CT1       0.106500
     36 H16         -1.3090     3.3600     4.0670 ha         1 CT1       0.101000
     37 H17         -2.7690     1.9650     5.4810 ha         1 CT1       0.101000
     38 H18         -2.0300     1.2990     7.7380 ha         1 CT1       0.101000
     39 H19          0.1730     2.0250     8.5760 ha         1 CT1       0.106500
     40 H20          4.3090     2.9240     8.6330 hc         1 CT1       0.029700
     41 H211         5.7190     1.9480     6.1300 hc         1 CT1       0.012533
     42 H212         5.0770     0.8520     7.3620 hc         1 CT1       0.012533
     43 H213         6.3570     2.0000     7.7800 hc         1 CT1       0.012533
     44 H221         5.9210     4.3310     7.0530 hc         1 CT1       0.012533
     45 H222         4.4860     4.3880     6.0200 hc         1 CT1       0.012533
     46 H223         4.4180     5.0330     7.6660 hc         1 CT1       0.012533
     47 H6           6.0520    -1.0120     2.4840 h4         1 CT1      -0.034800
     48 H5           3.6460    -0.8370     3.4220 h1         1 CT1       0.078700
     49 O7           6.2570     0.7440     3.3860 o          1 CT1      -0.543100
@<TRIPOS>BOND
     1     1     2 1   
     2     1    22 1   
     3     1    23 1   
     4     1    24 1   
     5     2     3 1   
     6     2    25 1   
     7     2    26 1   
     8     3     4 1   
     9     3    27 1   
    10     3    28 1   
    11     4    21 1   
    12     4    29 1   
    13     4    30 1   
    14     5     6 1   
    15     5    21 1   
    16     5    31 1   
    17     6     7 2   
    18     6     8 1   
    19     8     9 1   
    20     9    10 1   
    21     9    17 1   
    22     9    32 1   
    23    10    11 1   
    24    10    33 1   
    25    10    34 1   
    26    11    12 ar  
    27    11    16 ar  
    28    12    13 ar  
    29    12    35 1   
    30    13    14 ar  
    31    13    36 1   
    32    14    15 ar  
    33    14    37 1   
    34    15    16 ar  
    35    15    38 1   
    36    16    39 1   
    37    17    18 1   
    38    17    19 1   
    39    17    40 1   
    40    18    41 1   
    41    18    42 1   
    42    18    43 1   
    43    19    44 1   
    44    19    45 1   
    45    19    46 1   
    46    20    21 1   
    47    20    47 1   
    48    20    49 2   
    49    21    48 1   
@<TRIPOS>SUBSTRUCTURE
     1 CT1         1 TEMP              0 ****  ****    0 ROOT
