@<TRIPOS>MOLECULE
CT2
   50    51     1     0     0
SMALL
bcc


@<TRIPOS>ATOM
      1 C1           0.0000     0.0000     0.0000 c3         1 CT2       0.006900
      2 C2           1.5300     0.0000     0.0000 c3         1 CT2      -0.026400
      3 C3           2.0410     0.0000     1.4420 c3         1 CT2      -0.034400
      4 C4           3.5700    -0.0000     1.4420 c3         1 CT2      -0.028400
      5 C5           4.0800    -0.0000     2.8850 c3         1 CT2      -0.099300
      6 N8           3.6920     1.2510     3.5400 ns         1 CT2      -0.152900
      7 C9           3.5660     1.2990     4.8810 c          1 CT2       0.695100
      8 O10          3.7730     0.3040     5.5460 o          1 CT2      -0.671000
      9 O11          3.2100     2.4500     5.4830 os         1 CT2      -0.412900
     10 C12          3.1830     2.5320     6.9330 c3         1 CT2       0.210800
     11 C13          2.1080     1.6030     7.5000 c3         1 CT2      -0.016100
     12 C14          0.7500     2.0620     7.0350 ca         1 CT2      -0.078300
     13 C15          0.0140     2.9380     7.8120 ca         1 CT2      -0.100000
     14 C16         -1.2290     3.3630     7.3840 ca         1 CT2      -0.100000
     15 C17         -1.7410     2.9050     6.1840 ca         1 CT2      -0.107000
     16 C18         -1.0070     2.0250     5.4100 ca         1 CT2      -0.100000
     17 C19          0.2380     1.6040     5.8360 ca         1 CT2      -0.100000
     18 C20          4.5660     2.1800     7.5190 c3         1 CT2      -0.049900
     19 C21          5.3050     3.5140     7.7330 c3         1 CT2      -0.025400
     20 C22          4.3440     4.6290     7.2690 c3         1 CT2      -0.025400
     21 C23          2.9370     3.9920     7.3870 c3         1 CT2      -0.049900
     22 C6           5.5820    -0.1250     2.8860 c          1 CT2       0.641900
     23 O7           6.2590     0.7430     3.3830 o          1 CT2      -0.543100
     24 H11         -0.3610    -0.0370    -1.0210 hc         1 CT2       0.002367
     25 H12         -0.3610    -0.8660     0.5420 hc         1 CT2       0.002367
     26 H13         -0.3610     0.9020     0.4780 hc         1 CT2       0.002367
     27 H21          1.8910    -0.8840    -0.5110 hc         1 CT2       0.012700
     28 H22          1.8910     0.8840    -0.5110 hc         1 CT2       0.012700
     29 H31          1.6800    -0.8850     1.9530 hc         1 CT2       0.020700
     30 H32          1.6800     0.8850     1.9530 hc         1 CT2       0.020700
     31 H41          3.9310    -0.8850     0.9310 hc         1 CT2       0.025200
     32 H42          3.9310     0.8840     0.9310 hc         1 CT2       0.025200
     33 H5           3.6480    -0.8370     3.4200 h1         1 CT2       0.077700
     34 HN8          3.5660     2.0820     2.9960 hn         1 CT2       0.181500
     35 H131         2.1460     1.6250     8.5830 hc         1 CT2       0.047200
     36 H132         2.2860     0.5920     7.1540 hc         1 CT2       0.047200
     37 H15          0.4140     3.2970     8.7530 ha         1 CT2       0.106500
     38 H16         -1.8060     4.0500     7.9910 ha         1 CT2       0.100000
     39 H17         -2.7170     3.2370     5.8490 ha         1 CT2       0.101000
     40 H18         -1.4080     1.6660     4.4700 ha         1 CT2       0.100000
     41 H19          0.8140     0.9150     5.2300 ha         1 CT2       0.106500
     42 H201         4.4460     1.6680     8.4660 hc         1 CT2       0.036700
     43 H202         5.1160     1.5600     6.8220 hc         1 CT2       0.036700
     44 H211         6.2100     3.5340     7.1380 hc         1 CT2       0.015450
     45 H212         5.5410     3.6420     8.7820 hc         1 CT2       0.015450
     46 H221         4.5500     4.9010     6.2400 hc         1 CT2       0.015450
     47 H222         4.4250     5.4910     7.9190 hc         1 CT2       0.015450
     48 H231         2.2370     4.4860     6.7240 hc         1 CT2       0.036700
     49 H232         2.5910     4.0200     8.4130 hc         1 CT2       0.036700
     50 H6           6.0520    -1.0150     2.4850 h4         1 CT2      -0.034800
@<TRIPOS>BOND
     1     1     2 1   
     2     1    24 1   
     3     1    25 1   
     4     1    26 1   
     5     2     3 1   
     6     2    27 1   
     7     2    28 1   
     8     3     4 1   
     9     3    29 1   
    10     3    30 1   
    11     4     5 1   
    12     4    31 1   
    13     4    32 1   
    14     5     6 1   
    15     5    22 1   
    16     5    33 1   
    17     6     7 1   
    18     6    34 1   
    19     7     8 2   
    20     7     9 1   
    21     9    10 1   
    22    10    11 1   
    23    10    18 1   
    24    10    21 1   
    25    11    12 1   
    26    11    35 1   
    27    11    36 1   
    28    12    13 ar  
    29    12    17 ar  
    30    13    14 ar  
    31    13    37 1   
    32    14    15 ar  
    33    14    38 1   
    34    15    16 ar  
    35    15    39 1   
    36    16    17 ar  
    37    16    40 1   
    38    17    41 1   
    39    18    19 1   
    40    18    42 1   
    41    18    43 1   
    42    19    20 1   
    43    19    44 1   
    44    19    45 1   
    45    20    21 1   
    46    20    46 1   
    47    20    47 1   
    48    21    48 1   
    49    21    49 1   
    50    22    23 2   
    51    22    50 1   
@<TRIPOS>SUBSTRUCTURE
     1 CT2         1 TEMP              0 ****  ****    0 ROOT
