@<TRIPOS>MOLECULE
CT4
   23    23     1     0     0
SMALL
bcc


@<TRIPOS>ATOM
      1 N            0.0000     0.0000     0.0000 nu         1 CT4      -0.408200
      2 C            1.3490     0.0000     0.0000 c2         1 CT4       0.667100
      3 N1           2.0230     0.0000     1.1670 nu         1 CT4      -0.496200
      4 N2           2.0220     0.0010    -1.1670 n2         1 CT4      -1.087100
      5 C1          -0.7320    -0.1810     1.2570 c3         1 CT4       0.204100
      6 C2          -2.2120    -0.2130     0.9750 cc         1 CT4      -0.166700
      7 C3           1.3420     0.3800     2.4070 c3         1 CT4       0.143100
      8 S           -3.2920     1.1780     0.9480 ss         1 CT4      -0.262300
      9 C4          -4.6120     0.1590     0.5730 cc         1 CT4       0.453400
     10 N4          -4.2170    -1.0670     0.4910 nd         1 CT4      -0.554000
     11 C5          -2.9350    -1.3010     0.6960 cd         1 CT4       0.400200
     12 Cl          -6.2460     0.6950     0.3350 cl         1 CT4       0.020000
     13 N5           3.3010     0.1670    -1.1730 no         1 CT4       1.205400
     14 O1           3.8970     0.3490    -0.1270 o          1 CT4      -0.518000
     15 O2           3.9130     0.1410    -2.2260 o          1 CT4      -0.518000
     16 HN          -0.5000     0.1460    -0.8540 hn         1 CT4       0.328800
     17 HN1          2.9750    -0.3080     1.1940 hn         1 CT4       0.391800
     18 H1          -0.5100     0.6410     1.9260 h1         1 CT4       0.054200
     19 H1A         -0.4330    -1.1150     1.7180 h1         1 CT4       0.054200
     20 H3           0.7380     1.2620     2.2310 h1         1 CT4       0.026700
     21 H3A          0.7060    -0.4330     2.7340 h1         1 CT4       0.026700
     22 H3B          2.0780     0.5930     3.1730 h1         1 CT4       0.026700
     23 H5          -2.5060    -2.2940     0.6490 h4         1 CT4       0.008100
@<TRIPOS>BOND
     1     1     2 1   
     2     1     5 1   
     3     1    16 1   
     4     2     3 1   
     5     2     4 2   
     6     3     7 1   
     7     3    17 1   
     8     4    13 1   
     9     5     6 1   
    10     5    18 1   
    11     5    19 1   
    12     6     8 1   
    13     6    11 2   
    14     7    20 1   
    15     7    21 1   
    16     7    22 1   
    17     8     9 1   
    18     9    10 2   
    19     9    12 1   
    20    10    11 1   
    21    11    23 1   
    22    13    14 1   
    23    13    15 1   
@<TRIPOS>SUBSTRUCTURE
     1 CT4         1 TEMP              0 ****  ****    0 ROOT
