@<TRIPOS>MOLECULE
CT5
   46    49     1     0     0
SMALL
bcc


@<TRIPOS>ATOM
      1 C15        -0.1010    0.5480   -0.6350 ca        1 CT5     -0.107000
      2 C12         1.2390    0.3620   -0.9910 ca        1 CT5      0.050100
      3 O17         2.1950    1.0510   -0.2590 os        1 CT5     -0.315900
      4 O18         2.8990   -0.6960   -2.4430 os        1 CT5     -0.316900
      5 C16         1.5820   -0.4660   -2.0750 ca        1 CT5      0.053100
      6 C22         0.5830   -1.1250   -2.8000 ca        1 CT5     -0.126000
      7 C20        -0.7490   -0.9410   -2.4400 ca        1 CT5     -0.126000
      8 C8         -1.1010   -0.1040   -1.3680 ca        1 CT5     -0.001000
      9 C4         -2.4890    0.0560   -1.0020 cc        1 CT5     -0.211300
     10 C1         -3.3670   -0.9940   -0.5090 cc        1 CT5      0.321600
     11 C7         -2.9930   -2.4050   -0.3040 c3        1 CT5     -0.123400
     12 N5         -4.6010   -0.4700   -0.2410 nd        1 CT5     -0.515800
     13 C2         -3.2900    1.2230   -1.0140 cd        1 CT5     -0.019300
     14 N3         -4.5560    0.8160   -0.5630 na        1 CT5      0.004400
     15 C6         -2.9830    2.5710   -1.4490 ca        1 CT5     -0.079000
     16 C10        -2.0340    2.7610   -2.4650 ca        1 CT5     -0.043000
     17 C14        -1.6780    4.0260   -2.9310 ca        1 CT5     -0.126300
     18 C26        -0.6580    4.1720   -4.0040 c3        1 CT5     -0.029100
     19 C27        -1.1690    3.6950   -5.3430 c3        1 CT5     -0.089100
     20 C13        -2.3010    5.1500   -2.3490 ca        1 CT5      0.172100
     21 C17         3.5160    0.5280   -0.4280 c3        1 CT5      0.090400
     22 O25        -1.9320    6.3890   -2.8160 oh        1 CT5     -0.490100
     23 C11        -3.2570    5.0020   -1.3380 ca        1 CT5     -0.301000
     24 C18         3.8160    0.2550   -1.8930 c3        1 CT5      0.091400
     25 C9         -3.5970    3.7160   -0.8980 ca        1 CT5      0.168100
     26 O24        -4.5510    3.5370    0.0790 oh        1 CT5     -0.512100
     27 H15        -0.3540    1.2000    0.2130 ha        1 CT5      0.158000
     28 H22         0.8620   -1.7770   -3.6390 ha        1 CT5      0.150000
     29 H20        -1.5400   -1.4580   -3.0030 ha        1 CT5      0.143000
     30 H7C1       -2.8230   -2.6040    0.7840 hc        1 CT5      0.051033
     31 H7C2       -3.7950   -3.0950   -0.6670 hc        1 CT5      0.051033
     32 H7C3       -2.0470   -2.6260   -0.8600 hc        1 CT5      0.051033
     33 H3         -5.3100    1.4260   -0.3360 hn        1 CT5      0.332700
     34 H10        -1.5480    1.8720   -2.9050 ha        1 CT5      0.159000
     35 H261       -0.3440    5.2470   -4.0850 hc        1 CT5      0.056700
     36 H262        0.2540    3.5790   -3.7200 hc        1 CT5      0.056700
     37 H271       -2.0460    4.3030   -5.6700 hc        1 CT5      0.036033
     38 H272       -1.4820    2.6250   -5.2870 hc        1 CT5      0.036033
     39 H273       -0.3650    3.7910   -6.1130 hc        1 CT5      0.036033
     40 H171        3.6140   -0.4100    0.1780 h1        1 CT5      0.069200
     41 H172        4.1800    1.3330   -0.0170 h1        1 CT5      0.069200
     42 H25        -2.4260    7.0570   -2.3190 ho        1 CT5      0.421000
     43 H11        -3.7370    5.8840   -0.8920 ha        1 CT5      0.137000
     44 H181        3.7550    1.2010   -2.4920 h1        1 CT5      0.068700
     45 H182        4.8180   -0.2290   -2.0230 h1        1 CT5      0.068700
     46 H24        -4.7950    4.4070    0.4280 ho        1 CT5      0.429000
@<TRIPOS>BOND
     1    1    2 ar  
     2    1    8 ar  
     3    1   27 1   
     4    2    3 1   
     5    2    5 ar  
     6    3   21 1   
     7    4    5 1   
     8    4   24 1   
     9    5    6 ar  
    10    6    7 ar  
    11    6   28 1   
    12    7    8 ar  
    13    7   29 1   
    14    8    9 1   
    15    9   10 1   
    16    9   13 2   
    17   10   11 1   
    18   10   12 2   
    19   11   30 1   
    20   11   31 1   
    21   11   32 1   
    22   12   14 1   
    23   13   14 1   
    24   13   15 1   
    25   14   33 1   
    26   15   16 ar  
    27   15   25 ar  
    28   16   17 ar  
    29   16   34 1   
    30   17   18 1   
    31   17   20 ar  
    32   18   19 1   
    33   18   35 1   
    34   18   36 1   
    35   19   37 1   
    36   19   38 1   
    37   19   39 1   
    38   20   22 1   
    39   20   23 ar  
    40   21   24 1   
    41   21   40 1   
    42   21   41 1   
    43   22   42 1   
    44   23   25 ar  
    45   23   43 1   
    46   24   44 1   
    47   24   45 1   
    48   25   26 1   
    49   26   46 1   
@<TRIPOS>SUBSTRUCTURE
     1 CT5         1 TEMP              0 ****  ****    0 ROOT
