@<TRIPOS>MOLECULE
molecule
   46    49     1     0     0
SMALL
bcc


@<TRIPOS>ATOM
      1 C15          0.0000     0.0000     0.0000 ca         1 CT5      -0.104000
      2 C12          1.3920     0.0000     0.0000 ca         1 CT5       0.047100
      3 O17          2.0000     0.0000     1.2140 os         1 CT5      -0.297900
      4 O18          3.4310     0.0010    -1.3020 os         1 CT5      -0.299900
      5 C16          2.0750     0.0080    -1.2040 ca         1 CT5       0.047100
      6 C22          1.3620     0.0150    -2.4040 ca         1 CT5      -0.128000
      7 C20         -0.0130     0.0140    -2.4060 ca         1 CT5      -0.116000
      8 C8          -0.7080     0.0020    -1.1970 ca         1 CT5       0.007000
      9 C4          -2.1900    -0.0030    -1.1880 cc         1 CT5      -0.234300
     10 C1          -3.0170    -1.0440    -0.7310 cc         1 CT5       0.357600
     11 C7          -2.5450    -2.3600    -0.1670 c3         1 CT5      -0.110400
     12 N5          -4.2620    -0.6840    -0.8830 nd         1 CT5      -0.515800
     13 C2          -3.0190     1.0220    -1.6200 cd         1 CT5      -0.002300
     14 N3          -4.3020     0.6010    -1.4360 na         1 CT5      -0.040600
     15 C6          -2.5920     2.3210    -2.1800 ca         1 CT5      -0.088000
     16 C10         -2.8550     2.6280    -3.5150 ca         1 CT5      -0.060000
     17 C14         -2.4550     3.8420    -4.0330 ca         1 CT5      -0.127300
     18 C26         -2.7400     4.1730    -5.4760 c3         1 CT5      -0.029100
     19 C27         -4.1000     4.8640    -5.5810 c3         1 CT5      -0.087100
     20 C13         -1.7860     4.7570    -3.2330 ca         1 CT5       0.168100
     21 C17          3.3500    -0.4220     1.0540 c3         1 CT5       0.083400
     22 O25         -1.3940     5.9510    -3.7510 oh         1 CT5      -0.493100
     23 C11         -1.5250     4.4620    -1.9020 ca         1 CT5      -0.277000
     24 C18          3.9850     0.4200    -0.0590 c3         1 CT5       0.084400
     25 C9          -1.9220     3.2480    -1.3710 ca         1 CT5       0.180100
     26 O24         -1.6620     2.9560    -0.0700 oh         1 CT5      -0.494100
     27 H15         -0.5370    -0.0090     0.9410 ha         1 CT5       0.150000
     28 H22          1.8990     0.0250    -3.3450 ha         1 CT5       0.143000
     29 H20         -0.5550     0.0160    -3.3440 ha         1 CT5       0.138000
     30 H7C1        -1.7970    -2.7870    -0.8240 hc         1 CT5       0.051700
     31 H7C2        -3.3840    -3.0390    -0.0850 hc         1 CT5       0.051700
     32 H7C3        -2.1140    -2.1980     0.8140 hc         1 CT5       0.051700
     33 H3          -5.1280     1.1210    -1.6560 hn         1 CT5       0.329700
     34 H10         -3.3360     1.8980    -4.1550 ha         1 CT5       0.147000
     35 H261        -1.9680     4.8330    -5.8540 hc         1 CT5       0.054700
     36 H262        -2.7520     3.2600    -6.0600 hc         1 CT5       0.054700
     37 H271        -4.8590     4.1330    -5.8330 hc         1 CT5       0.035033
     38 H272        -4.3440     5.3270    -4.6330 hc         1 CT5       0.035033
     39 H273        -4.0600     5.6230    -6.3540 hc         1 CT5       0.035033
     40 H171         3.3740    -1.4700     0.7770 h1         1 CT5       0.066700
     41 H172         3.8920    -0.2710     1.9800 h1         1 CT5       0.066700
     42 H25         -1.2610     6.5690    -3.0510 ho         1 CT5       0.424000
     43 H11         -1.0050     5.1810    -1.2810 ha         1 CT5       0.141000
     44 H181         5.0570     0.2640    -0.0680 h1         1 CT5       0.066700
     45 H182         3.7630     1.4670     0.1040 h1         1 CT5       0.066700
     46 H24         -2.0180     3.6330     0.4810 ho         1 CT5       0.421000
@<TRIPOS>BOND
     1     1     2 ar
     2     1     8 ar
     3     1    27 1
     4     2     3 1
     5     2     5 ar
     6     3    21 1
     7     4     5 1
     8     4    24 1
     9     5     6 ar
    10     6     7 ar
    11     6    28 1
    12     7     8 ar
    13     7    29 1
    14     8     9 1
    15     9    10 1
    16     9    13 2
    17    10    11 1
    18    10    12 2
    19    11    30 1
    20    11    31 1
    21    11    32 1
    22    12    14 1
    23    13    14 1
    24    13    15 1
    25    14    33 1
    26    15    16 ar
    27    15    25 ar
    28    16    17 ar
    29    16    34 1
    30    17    18 1
    31    17    20 ar
    32    18    19 1
    33    18    35 1
    34    18    36 1
    35    19    37 1
    36    19    38 1
    37    19    39 1
    38    20    22 1
    39    20    23 ar
    40    21    24 1
    41    21    40 1
    42    21    41 1
    43    22    42 1
    44    23    25 ar
    45    23    43 1
    46    24    44 1
    47    24    45 1
    48    25    26 1
    49    26    46 1
@<TRIPOS>SUBSTRUCTURE
     1 CT5         1 TEMP              0 ****  ****    0 ROOT
