@<TRIPOS>MOLECULE
molecule
   39    42     1     0     0
SMALL
bcc


@<TRIPOS>ATOM
      1 Br1          0.0000     0.0000     0.0000 br         1 CT6      -0.044100
      2 C1           1.8910     0.0000     0.0000 ca         1 CT6      -0.031900
      3 C2           2.5800     0.0000     1.1960 ca         1 CT6      -0.063000
      4 C3           3.9760    -0.0060     1.1930 cp         1 CT6      -0.216500
      5 C4           4.6660     0.0010    -0.0210 ca         1 CT6      -0.047000
      6 C5           3.9650     0.0070    -1.2090 ca         1 CT6      -0.129000
      7 C6           2.5820     0.0070    -1.2000 ca         1 CT6      -0.043000
      8 C7           4.7200    -0.0130     2.4680 cp         1 CT6       0.539800
      9 C8           3.9600    -0.0120     3.7610 ca         1 CT6      -0.168300
     10 C9           4.6990    -0.7330     4.9310 ca         1 CT6      -0.017500
     11 N2           5.9630    -1.2340     4.4340 na         1 CT6      -0.019200
     12 N3           6.8850    -1.5680     5.3820 na         1 CT6      -0.211600
     13 C12          8.1510    -1.3650     4.8130 cc         1 CT6      -0.015100
     14 C10          6.6290    -0.0650     3.7790 ca         1 CT6       0.530300
     15 C11          8.0770    -0.4590     3.8390 cd         1 CT6      -0.259800
     16 N1           6.0300    -0.0130     2.4460 nb         1 CT6      -0.612000
     17 N4           3.8960    -1.8530     5.4390 nu         1 CT6      -0.269200
     18 C13          3.9480    -1.7800     6.9050 c3         1 CT6       0.012600
     19 C14          3.1280    -2.9250     7.5020 ca         1 CT6      -0.082300
     20 C15          3.2820    -2.9250     9.0260 ca         1 CT6      -0.176800
     21 C16          2.3700    -3.9990     9.6240 ca         1 CT6       0.432200
     22 N5           0.9710    -3.6980     9.3020 nb         1 CT6      -0.628000
     23 C17          0.8230    -3.8170     7.8480 ca         1 CT6       0.432200
     24 C18          1.6490    -2.7330     7.1520 ca         1 CT6      -0.176800
     25 H2           2.0390    -0.0050     2.1340 ha         1 CT6       0.143000
     26 H4           5.7490    -0.0020    -0.0290 ha         1 CT6       0.161000
     27 H5           4.4990     0.0120    -2.1520 ha         1 CT6       0.162000
     28 H6           2.0360     0.0110    -2.1360 ha         1 CT6       0.167000
     29 H8           3.2530     0.7810     3.9740 ha         1 CT6       0.201000
     30 H3           6.7030    -2.1960     6.1400 hn         1 CT6       0.351700
     31 H12          9.0570    -1.8730     5.1210 h4         1 CT6       0.214000
     32 H11          8.8850    -0.0930     3.2160 ha         1 CT6       0.219000
     33 HA           3.0430    -2.1060     4.9800 hn         1 CT6       0.296700
     34 H131         4.9770    -1.8630     7.2350 h1         1 CT6       0.062200
     35 H132         3.5380    -0.8330     7.2340 h1         1 CT6       0.062200
     36 H15          4.3240    -3.0030     9.3100 ha         1 CT6       0.105500
     37 H16          2.5250    -4.0440    10.6960 h4         1 CT6       0.006100
     38 H17         -0.2150    -3.7220     7.5510 h4         1 CT6       0.006100
     39 H18          1.5100    -2.6710     6.0800 ha         1 CT6       0.105500
@<TRIPOS>BOND
     1     1     2 1
     2     2     3 ar
     3     2     7 ar
     4     3     4 ar
     5     3    25 1
     6     4     5 ar
     7     4     8 1
     8     5     6 ar
     9     5    26 1
    10     6     7 ar
    11     6    27 1
    12     7    28 1
    13     8     9 ar
    14     8    16 ar
    15     9    10 ar
    16     9    29 1
    17    10    11 1
    18    10    17 1
    19    11    12 1
    20    11    14 2
    21    12    13 1
    22    12    30 1
    23    13    15 2
    24    13    31 1
    25    14    15 1
    26    14    16 ar
    27    15    32 1
    28    17    18 1
    29    17    33 1
    30    18    19 1
    31    18    34 1
    32    18    35 1
    33    19    20 ar
    34    19    24 ar
    35    20    21 ar
    36    20    36 1
    37    21    22 ar
    38    21    37 1
    39    22    23 ar
    40    23    24 ar
    41    23    38 1
    42    24    39 1
@<TRIPOS>SUBSTRUCTURE
     1 CT6         1 TEMP              0 ****  ****    0 ROOT
