@<TRIPOS>MOLECULE
CT7
   32    34     1     0     0
SMALL
bcc


@<TRIPOS>ATOM
      1 O3           0.0000     0.0000     0.0000 o          1 CT7      -0.588300
      2 S1           1.4220     0.0000     0.0000 sy         1 CT7       0.875300
      3 O2           2.1750     0.0000     1.2040 o          1 CT7      -0.588300
      4 C16          1.8120     1.5660    -0.7070 ca         1 CT7      -0.199500
      5 C15          3.0110     2.1820    -0.3980 ca         1 CT7       0.048500
      6 C17          0.9180     2.1790    -1.5640 ca         1 CT7       0.048500
      7 C18          1.2210     3.4060    -2.1190 ca         1 CT7      -0.187500
      8 C14          3.3230     3.4060    -0.9550 ca         1 CT7      -0.187500
      9 C13          2.4260     4.0250    -1.8160 ca         1 CT7       0.077600
     10 N5           2.7350     5.2670    -2.3750 nu         1 CT7      -0.223000
     11 C9           1.9150     5.8130    -3.3400 cc         1 CT7      -0.041700
     12 N2           1.6650     5.1370    -4.5050 na         1 CT7       0.507200
     13 C10          0.8440     5.6940    -5.4500 cc         1 CT7       0.203500
     14 N1           0.2880     6.8980    -5.2480 nc         1 CT7      -0.527000
     15 C11          1.5560     3.6960    -6.1710 cd         1 CT7       0.489500
     16 N3           2.0850     3.8930    -4.9850 nc         1 CT7      -0.733100
     17 C8           1.3400     7.0400    -3.1490 cd         1 CT7      -0.272300
     18 C7           0.5140     7.5710    -4.1410 cd         1 CT7       0.414300
     19 Cl1         -0.2200     9.1270    -3.9120 cl         1 CT7      -0.057000
     20 C12          0.7740     4.7920    -6.5040 cd         1 CT7      -0.352600
     21 C20          2.0890    -1.1770    -1.2070 c3         1 CT7       0.031700
     22 H15          3.7100     1.6980     0.2730 ha         1 CT7       0.122000
     23 H17         -0.0230     1.6960    -1.8000 ha         1 CT7       0.122000
     24 H18          0.5190     3.8860    -2.7900 ha         1 CT7       0.113000
     25 H14          4.2630     3.8860    -0.7140 ha         1 CT7       0.113000
     26 HN5          3.5670     5.7480    -2.0940 hn         1 CT7       0.300800
     27 H11          1.7070     2.8190    -6.7900 h4         1 CT7       0.014800
     28 H8           1.5260     7.5950    -2.2380 ha         1 CT7       0.146000
     29 H12          0.2100     4.9220    -7.4200 ha         1 CT7       0.150000
     30 H201         3.1530    -1.0100    -1.3230 h1         1 CT7       0.059700
     31 H202         1.9190    -2.1880    -0.8580 h1         1 CT7       0.059700
     32 H203         1.5950    -1.0360    -2.1600 h1         1 CT7       0.059700
@<TRIPOS>BOND
     1     1     2 2   
     2     2     3 2   
     3     2     4 1   
     4     2    21 1   
     5     4     5 ar  
     6     4     6 ar  
     7     5     8 ar  
     8     5    22 1   
     9     6     7 ar  
    10     6    23 1   
    11     7     9 ar  
    12     7    24 1   
    13     8     9 ar  
    14     8    25 1   
    15     9    10 1   
    16    10    11 1   
    17    10    26 1   
    18    11    12 1   
    19    11    17 2   
    20    12    13 1   
    21    12    16 1   
    22    13    14 1   
    23    13    20 2   
    24    14    18 2   
    25    15    16 2   
    26    15    20 1   
    27    15    27 1   
    28    17    18 1   
    29    17    28 1   
    30    18    19 1   
    31    20    29 1   
    32    21    30 1   
    33    21    31 1   
    34    21    32 1   
@<TRIPOS>SUBSTRUCTURE
     1 CT7         1 TEMP              0 ****  ****    0 ROOT
