@<TRIPOS>MOLECULE
molecule
   38    41     1     0     0
SMALL
bcc


@<TRIPOS>ATOM
      1 Br1          0.0000     0.0000     0.0000 br         1 CT8      -0.041100
      2 C1           1.8920     0.0000     0.0000 ca         1 CT8      -0.032900
      3 C2           2.5800     0.0000     1.1970 ca         1 CT8      -0.060000
      4 C3           3.9760    -0.0060     1.1940 cp         1 CT8      -0.221500
      5 C4           4.6660    -0.0010    -0.0200 ca         1 CT8      -0.043000
      6 C5           3.9660     0.0040    -1.2080 ca         1 CT8      -0.129000
      7 C6           2.5820     0.0050    -1.1990 ca         1 CT8      -0.037000
      8 C7           4.7200    -0.0140     2.4690 cp         1 CT8       0.549800
      9 C8           3.9600    -0.0130     3.7620 ca         1 CT8      -0.170300
     10 C9           4.7000     0.6780     4.9370 ca         1 CT8      -0.012500
     11 N2           5.9650     1.1870     4.4490 na         1 CT8      -0.046200
     12 N3           6.8900     1.4840     5.4070 na         1 CT8      -0.315500
     13 C12          8.1270     1.2580     4.8310 cc         1 CT8       0.532700
     14 C10          6.6270     0.0240     3.7800 ca         1 CT8       0.676500
     15 N1           6.0300    -0.0150     2.4490 nb         1 CT8      -0.581000
     16 N4           3.8950     1.7900     5.4590 nu         1 CT8      -0.264200
     17 C13          3.9450     1.6960     6.9240 c3         1 CT8       0.011600
     18 C14          3.1220     2.8310     7.5360 ca         1 CT8      -0.090300
     19 C15          3.0690     2.6620     9.0580 ca         1 CT8      -0.181300
     20 C16          2.3430     3.8610     9.6710 ca         1 CT8       0.433700
     21 N5           3.0770     5.0950     9.3690 nb         1 CT8      -0.631000
     22 C17          3.0150     5.2950     7.9180 ca         1 CT8       0.433700
     23 C18          3.7780     4.1750     7.2070 ca         1 CT8      -0.181300
     24 N11          8.0350     0.3910     3.8600 nd         1 CT8      -0.594700
     25 H2           2.0380    -0.0040     2.1350 ha         1 CT8       0.143000
     26 H4           5.7500    -0.0040    -0.0280 ha         1 CT8       0.165000
     27 H5           4.5010     0.0080    -2.1500 ha         1 CT8       0.165000
     28 H6           2.0370     0.0090    -2.1360 ha         1 CT8       0.169000
     29 H8           3.2320    -0.7890     3.9630 ha         1 CT8       0.204000
     30 H3           6.7270     2.1040     6.1760 hn         1 CT8       0.356700
     31 H12          9.0470     1.7370     5.1440 h5         1 CT8       0.120800
     32 HA           3.0420     2.0470     5.0030 hn         1 CT8       0.299700
     33 H131         4.9730     1.7760     7.2560 h1         1 CT8       0.061700
     34 H132         3.5370     0.7430     7.2390 h1         1 CT8       0.061700
     35 H15          2.6610     1.6950     9.3270 ha         1 CT8       0.117500
     36 H16          2.2480     3.7130    10.7400 h4         1 CT8       0.006100
     37 H17          3.4380     6.2520     7.6360 h4         1 CT8       0.006100
     38 H18          3.8830     4.3030     6.1370 ha         1 CT8       0.117500
@<TRIPOS>BOND
     1     1     2 1
     2     2     3 ar
     3     2     7 ar
     4     3     4 ar
     5     3    25 1
     6     4     5 ar
     7     4     8 1
     8     5     6 ar
     9     5    26 1
    10     6     7 ar
    11     6    27 1
    12     7    28 1
    13     8     9 ar
    14     8    15 ar
    15     9    10 ar
    16     9    29 1
    17    10    11 1
    18    10    16 1
    19    11    12 1
    20    11    14 2
    21    12    13 1
    22    12    30 1
    23    13    24 2
    24    13    31 1
    25    14    15 ar
    26    14    24 1
    27    16    17 1
    28    16    32 1
    29    17    18 1
    30    17    33 1
    31    17    34 1
    32    18    19 ar
    33    18    23 ar
    34    19    20 ar
    35    19    35 1
    36    20    21 ar
    37    20    36 1
    38    21    22 ar
    39    22    23 ar
    40    22    37 1
    41    23    38 1
@<TRIPOS>SUBSTRUCTURE
     1 CT8         1 TEMP              0 ****  ****    0 ROOT
