@<TRIPOS>MOLECULE
molecule
   67    70     1     0     0
SMALL
bcc


@<TRIPOS>ATOM
      1 N8           0.0000     0.0000     0.0000 nz         1 CT9      -0.813600
      2 C61          7.4570     7.7900     8.9280 c3         1 CT9       0.225100
      3 S1           7.4620     9.5440     6.8700 sy         1 CT9       1.431200
      4 N6           6.9030     9.0080     8.3340 n3         1 CT9      -0.824500
      5 C62          5.8530     9.7520     9.0340 c3         1 CT9       0.225100
      6 O2           8.7570     8.9780     6.7220 o          1 CT9      -0.631800
      7 C4           1.4690     0.0000     0.0000 c3         1 CT9       0.095500
      8 C5           1.9780     0.0000     1.4430 c3         1 CT9      -0.104900
      9 C6           3.5080    -0.0000     1.4430 c3         1 CT9      -0.087400
     10 C3           1.9790     1.2480    -0.7210 c3         1 CT9      -0.104900
     11 C2           3.5090     1.2470    -0.7210 c3         1 CT9      -0.087400
     12 C1           4.0190     1.2490     0.7220 c3         1 CT9       0.241500
     13 N7           3.5310     2.4440     1.4120 nu         1 CT9      -0.925900
     14 C7           4.2800     3.6090     1.3920 cc         1 CT9       0.724200
     15 C8           3.8110     4.7540     2.0540 cc         1 CT9      -0.398300
     16 N1           5.4340     3.6400     0.7490 nd         1 CT9      -0.774000
     17 C10          6.1740     4.7570     0.7130 cd         1 CT9       0.436500
     18 C11          7.3980     5.0520     0.1300 cc         1 CT9      -0.314800
     19 C20          8.2480     4.1090    -0.6790 c3         1 CT9       0.009500
     20 C21          8.4370     4.6710    -2.0880 c3         1 CT9      -0.086100
     21 C22          9.6140     3.9500    -0.0060 c3         1 CT9      -0.086100
     22 C12          7.6940     6.3780     0.4210 cc         1 CT9       0.436500
     23 N2           5.7520     5.8940     1.3520 na         1 CT9      -0.004800
     24 N3           6.7220     6.8810     1.1450 nd         1 CT9      -0.550100
     25 C9           4.5580     5.8960     2.0270 cd         1 CT9       0.341300
     26 N5           4.1190     7.0350     2.6690 nu         1 CT9      -0.685000
     27 C13          4.9070     7.6270     3.6600 ca         1 CT9       0.223600
     28 C18          4.5410     8.8510     4.2030 ca         1 CT9      -0.195500
     29 C17          5.3220     9.4320     5.1820 ca         1 CT9       0.011000
     30 C14          6.0580     6.9880     4.1070 ca         1 CT9      -0.195500
     31 C15          6.8370     7.5800     5.0820 ca         1 CT9       0.011000
     32 C16          6.4680     8.7980     5.6220 ca         1 CT9      -0.346500
     33 O3           7.1610    10.9310     6.8270 o          1 CT9      -0.631800
     34 HN81        -0.3340    -0.8630    -0.3810 hn         1 CT9       0.454133
     35 HN82        -0.3340     0.1010     0.9380 hn         1 CT9       0.454133
     36 H611         6.8350     6.9430     8.6640 h1         1 CT9       0.044367
     37 H612         7.4860     7.8940    10.0060 h1         1 CT9       0.044367
     38 H613         8.4620     7.6300     8.5540 h1         1 CT9       0.044367
     39 H621         5.3480    10.4080     8.3350 h1         1 CT9       0.044367
     40 H622         5.1390     9.0570     9.4580 h1         1 CT9       0.044367
     41 H623         6.2970    10.3430     9.8260 h1         1 CT9       0.044367
     42 H4           1.8340    -0.8830    -0.5100 hx         1 CT9       0.117700
     43 H51          1.6180    -0.8860     1.9510 hc         1 CT9       0.063450
     44 H52          1.6180     0.8860     1.9510 hc         1 CT9       0.063450
     45 H61          3.8670    -0.8840     0.9310 hc         1 CT9       0.081450
     46 H62          3.8670     0.0020     2.4650 hc         1 CT9       0.081450
     47 H31          1.6200     2.1320    -0.2070 hc         1 CT9       0.063450
     48 H32          1.6190     1.2460    -1.7420 hc         1 CT9       0.063450
     49 H21          3.8680     0.3600    -1.2290 hc         1 CT9       0.081450
     50 H22          3.8690     2.1330    -1.2310 hc         1 CT9       0.081450
     51 H1           5.1020     1.2440     0.7200 h1         1 CT9       0.119700
     52 HN7          2.6870     2.4020     1.9490 hn         1 CT9       0.435800
     53 H8           2.8020     4.7770     2.4490 ha         1 CT9       0.150000
     54 H20          7.7610     3.1440    -0.7380 hc         1 CT9       0.056700
     55 H211         7.4800     4.9930    -2.4800 hc         1 CT9       0.036700
     56 H212         8.8500     3.9020    -2.7300 hc         1 CT9       0.036700
     57 H213         9.1150     5.5150    -2.0520 hc         1 CT9       0.036700
     58 H221         9.4750     3.6760     1.0330 hc         1 CT9       0.036700
     59 H222        10.1770     3.1740    -0.5110 hc         1 CT9       0.036700
     60 H223        10.1560     4.8860    -0.0640 hc         1 CT9       0.036700
     61 H12          8.5810     6.9110     0.1010 h4         1 CT9       0.073800
     62 HN5          3.2280     7.4290     2.4360 hn         1 CT9       0.466800
     63 H18          3.6650     9.3680     3.8300 ha         1 CT9       0.137000
     64 H17          5.0480    10.3980     5.5880 ha         1 CT9       0.157000
     65 H14          6.2940     5.9910     3.7570 ha         1 CT9       0.137000
     66 H15          7.7420     7.0900     5.4210 ha         1 CT9       0.157000
     67 H83         -0.3340     0.7660    -0.5500 hn         1 CT9       0.454133
@<TRIPOS>BOND
     1     1     7 1
     2     1    34 1
     3     1    35 1
     4     2     4 1
     5     2    36 1
     6     2    37 1
     7     2    38 1
     8     3     4 1
     9     3     6 2
    10     3    32 1
    11     3    33 2
    12     4     5 1
    13     5    39 1
    14     5    40 1
    15     5    41 1
    16     7     8 1
    17     7    10 1
    18     7    42 1
    19     8     9 1
    20     8    43 1
    21     8    44 1
    22     9    12 1
    23     9    45 1
    24     9    46 1
    25    10    11 1
    26    10    47 1
    27    10    48 1
    28    11    12 1
    29    11    49 1
    30    11    50 1
    31    12    13 1
    32    12    51 1
    33    13    14 1
    34    13    52 1
    35    14    15 1
    36    14    16 2
    37    15    25 2
    38    15    53 1
    39    16    17 1
    40    17    18 2
    41    17    23 1
    42    18    19 1
    43    18    22 1
    44    19    20 1
    45    19    21 1
    46    19    54 1
    47    20    55 1
    48    20    56 1
    49    20    57 1
    50    21    58 1
    51    21    59 1
    52    21    60 1
    53    22    24 2
    54    22    61 1
    55    23    24 1
    56    23    25 1
    57    25    26 1
    58    26    27 1
    59    26    62 1
    60    27    28 ar
    61    27    30 ar
    62    28    29 ar
    63    28    63 1
    64    29    32 ar
    65    29    64 1
    66    30    31 ar
    67    30    65 1
    68    31    32 ar
    69    31    66 1
    70    67     1 1
@<TRIPOS>SUBSTRUCTURE
     1 CT9         1 TEMP              0 ****  ****    0 ROOT
