@<TRIPOS>MOLECULE
molecule
   57    60     1     0     0
SMALL
bcc


@<TRIPOS>ATOM
      1 C1           1.5560     0.0000     0.0000 c          1 CTC       0.576300
      2 O1           2.1340    -0.1030    -1.1180 o          1 CTC      -0.575100
      3 C2           2.2310     0.6950     1.0130 ce         1 CTC      -0.415400
      4 C2'          3.6050     0.9330     0.9050 c          1 CTC       0.523300
      5 O2'          4.1290     2.0390     1.2740 o          1 CTC      -0.468100
      6 N2'          4.4050     0.0780     0.1880 nz         1 CTC      -0.662400
      7 C3           1.4800     1.4670     1.8840 c2         1 CTC       0.382900
      8 O3           1.9630     2.7730     2.2740 oh         1 CTC      -0.473100
      9 C4           0.1000     1.0120     2.4040 c3         1 CTC       0.166700
     10 N4          -0.5250     2.3560     2.9420 n3         1 CTC      -0.707600
     11 C4'         -1.0510     3.2750     1.7490 c3         1 CTC       0.142600
     12 C4D         -1.6520     2.2530     3.9670 c3         1 CTC       0.142600
     13 C4A         -0.6390     0.0000     1.4340 c3         1 CTC      -0.057700
     14 C5          -0.7060    -1.5120     1.8880 c3         1 CTC      -0.062400
     15 C5A         -1.3920    -2.5750     0.9510 c3         1 CTC      -0.006500
     16 C6          -1.3810    -4.0380     1.3810 c3         1 CTC       0.217100
     17 O6          -0.0290    -4.3180     1.7370 oh         1 CTC      -0.595800
     18 C6'         -2.3690    -4.0340     2.5750 c3         1 CTC      -0.128100
     19 C6A         -1.8350    -5.0890     0.2560 ca         1 CTC      -0.030300
     20 C7          -1.9050    -6.4860     0.5310 ca         1 CTC      -0.008600
     21 Cl7         -1.4010    -7.1720     2.0810 cl         1 CTC      -0.110400
     22 C8          -2.1940    -7.4050    -0.4650 ca         1 CTC      -0.062000
     23 C9          -2.4330    -6.9820    -1.7350 ca         1 CTC      -0.210000
     24 C10         -2.3560    -5.6270    -2.0480 ca         1 CTC       0.195100
     25 O10         -2.7480    -5.2500    -3.3820 oh         1 CTC      -0.492100
     26 C6B         -2.0030    -4.6530    -1.0640 ca         1 CTC      -0.156600
     27 C11         -1.4510    -3.3920    -1.4560 c          1 CTC       0.561900
     28 O11         -1.2260    -3.2160    -2.6820 o          1 CTC      -0.483100
     29 C5B         -1.1140    -2.3520    -0.5150 ce         1 CTC      -0.175400
     30 C12         -0.7860    -1.0290    -0.9250 c2         1 CTC       0.095900
     31 O12         -1.1020    -0.5910    -2.2630 oh         1 CTC      -0.498100
     32 C4B          0.0000     0.0000     0.0000 c3         1 CTC       0.136000
     33 O4B         -0.2940     1.2790    -0.5890 oh         1 CTC      -0.605800
     34 HN21         4.3860     0.3360    -0.7790 hn         1 CTC       0.480800
     35 HN22         4.0680    -0.8590     0.2900 hn         1 CTC       0.480800
     36 HO3          2.4400     2.7030     3.0840 ho         1 CTC       0.461000
     37 H4           0.3080     0.4260     3.2910 h1         1 CTC       0.096700
     38 H4'1        -0.2740     3.3750     1.0010 h1         1 CTC       0.052533
     39 H4'2        -1.3090     4.2550     2.1340 h1         1 CTC       0.052533
     40 H4'3        -1.9270     2.8210     1.3020 h1         1 CTC       0.052533
     41 H4A1        -2.5520     1.8990     3.4800 h1         1 CTC       0.052533
     42 H4A2        -1.8360     3.2280     4.4010 h1         1 CTC       0.052533
     43 H4A3        -1.3670     1.5580     4.7480 h1         1 CTC       0.052533
     44 H4A         -1.6590     0.3480     1.3320 hc         1 CTC       0.093700
     45 H51          0.3120    -1.8420     2.0550 hc         1 CTC       0.055200
     46 H52         -1.2250    -1.5390     2.8380 hc         1 CTC       0.055200
     47 H5A         -2.4410    -2.3170     1.0360 hc         1 CTC       0.060700
     48 HO6         -0.0130    -4.9380     2.4470 ho         1 CTC       0.418000
     49 H6'1        -2.5030    -5.0460     2.9360 hc         1 CTC       0.057700
     50 H6'2        -3.3240    -3.6360     2.2520 hc         1 CTC       0.057700
     51 H6'3        -1.9710    -3.4160     3.3710 hc         1 CTC       0.057700
     52 H8          -2.9000    -8.1600    -0.1400 ha         1 CTC       0.175000
     53 H9          -1.9500    -7.6070    -2.4770 ha         1 CTC       0.181000
     54 HO1         -3.5140    -5.7390    -3.6340 ho         1 CTC       0.429000
     55 HO2         -2.0260    -0.4130    -2.3260 ho         1 CTC       0.438000
     56 HO4         -0.0290     1.2770    -1.4940 ho         1 CTC       0.449000
     57 H2'3         5.3420     0.1260     0.5370 hn         1 CTC       0.480800
@<TRIPOS>BOND
     1     1     2 2
     2     1     3 1
     3     1    32 1
     4     3     4 1
     5     3     7 2
     6     4     5 2
     7     4     6 1
     8     6    34 1
     9     6    35 1
    10     7     8 1
    11     7     9 1
    12     8    36 1
    13     9    10 1
    14     9    13 1
    15     9    37 1
    16    10    11 1
    17    10    12 1
    18    11    38 1
    19    11    39 1
    20    11    40 1
    21    12    41 1
    22    12    42 1
    23    12    43 1
    24    13    14 1
    25    13    32 1
    26    13    44 1
    27    14    15 1
    28    14    45 1
    29    14    46 1
    30    15    16 1
    31    15    29 1
    32    15    47 1
    33    16    17 1
    34    16    18 1
    35    16    19 1
    36    17    48 1
    37    18    49 1
    38    18    50 1
    39    18    51 1
    40    19    20 ar
    41    19    26 ar
    42    20    21 1
    43    20    22 ar
    44    22    23 ar
    45    22    52 1
    46    23    24 ar
    47    23    53 1
    48    24    25 1
    49    24    26 ar
    50    25    54 1
    51    26    27 1
    52    27    28 2
    53    27    29 1
    54    29    30 2
    55    30    31 1
    56    30    32 1
    57    31    55 1
    58    32    33 1
    59    33    56 1
    60    57     6 1
@<TRIPOS>SUBSTRUCTURE
     1 CTC         1 TEMP              0 ****  ****    0 ROOT
