@<TRIPOS>MOLECULE
CTC
   57    60     1     0     0
SMALL
bcc


@<TRIPOS>ATOM
      1 C1           1.5560     0.0000     0.0000 c          1 CTC       0.645300
      2 O1           2.1340    -0.1030    -1.1180 o          1 CTC      -0.615100
      3 C2           2.2310     0.6950     1.0130 ce         1 CTC      -0.474400
      4 C2'          3.6050     0.9330     0.9050 c          1 CTC       0.376300
      5 O2'          4.1290     2.0390     1.2740 o          1 CTC      -0.489100
      6 N2'          4.4050     0.0780     0.1880 nz         1 CTC       0.212600
      7 C3           1.4800     1.4670     1.8840 c2         1 CTC       0.437900
      8 O3           1.9630     2.7730     2.2740 oh         1 CTC      -0.457100
      9 C4           0.1000     1.0120     2.4040 c3         1 CTC       0.148700
     10 N4          -0.5250     2.3560     2.9420 n3         1 CTC      -0.584600
     11 C4'         -1.0510     3.2750     1.7490 c3         1 CTC       0.209100
     12 C4D         -1.6520     2.2530     3.9670 c3         1 CTC       0.209100
     13 C4A         -0.6390     0.0000     1.4340 c3         1 CTC      -0.035700
     14 C5          -0.7060    -1.5120     1.8880 c3         1 CTC      -0.002400
     15 C5A         -1.3920    -2.5750     0.9510 c3         1 CTC       0.012500
     16 C6          -1.3810    -4.0380     1.3810 c3         1 CTC       0.248100
     17 O6          -0.0290    -4.3180     1.7370 oh         1 CTC      -0.588800
     18 C6'         -2.3690    -4.0340     2.5750 c3         1 CTC      -0.050100
     19 C6A         -1.8350    -5.0890     0.2560 ca         1 CTC      -0.029300
     20 C7          -1.9050    -6.4860     0.5310 ca         1 CTC      -0.076600
     21 Cl7         -1.4010    -7.1720     2.0810 cl         1 CTC      -0.019400
     22 C8          -2.1940    -7.4050    -0.4650 ca         1 CTC      -0.041000
     23 C9          -2.4330    -6.9820    -1.7350 ca         1 CTC      -0.203000
     24 C10         -2.3560    -5.6270    -2.0480 ca         1 CTC       0.222100
     25 O10         -2.7480    -5.2500    -3.3820 oh         1 CTC      -0.472100
     26 C6B         -2.0030    -4.6530    -1.0640 ca         1 CTC      -0.172600
     27 C11         -1.4510    -3.3920    -1.4560 c          1 CTC       0.613900
     28 O11         -1.2260    -3.2160    -2.6820 o          1 CTC      -0.522100
     29 C5B         -1.1140    -2.3520    -0.5150 ce         1 CTC      -0.197400
     30 C12         -0.7860    -1.0290    -0.9250 c2         1 CTC       0.107900
     31 O12         -1.1020    -0.5910    -2.2630 oh         1 CTC      -0.472100
     32 C4B          0.0000     0.0000     0.0000 c3         1 CTC       0.158000
     33 O4B         -0.2940     1.2790    -0.5890 oh         1 CTC      -0.605800
     34 HN21         4.3860     0.3360    -0.7790 hn         1 CTC       0.249800
     35 HN22         4.0680    -0.8590     0.2900 hn         1 CTC       0.249800
     36 HO3          2.4400     2.7030     3.0840 ho         1 CTC       0.443000
     37 H4           0.3080     0.4260     3.2910 h1         1 CTC       0.055700
     38 H4'1        -0.2740     3.3750     1.0010 h1         1 CTC       0.013533
     39 H4'2        -1.3090     4.2550     2.1340 h1         1 CTC       0.013533
     40 H4'3        -1.9270     2.8210     1.3020 h1         1 CTC       0.013533
     41 H4A1        -2.5520     1.8990     3.4800 h1         1 CTC       0.013533
     42 H4A2        -1.8360     3.2280     4.4010 h1         1 CTC       0.013533
     43 H4A3        -1.3670     1.5580     4.7480 h1         1 CTC       0.013533
     44 H4A         -1.6590     0.3480     1.3320 hc         1 CTC       0.058700
     45 H51          0.3120    -1.8420     2.0550 hc         1 CTC       0.021200
     46 H52         -1.2250    -1.5390     2.8380 hc         1 CTC       0.021200
     47 H5A         -2.4410    -2.3170     1.0360 hc         1 CTC       0.033700
     48 HO6         -0.0130    -4.9380     2.4470 ho         1 CTC       0.406000
     49 H6'1        -2.5030    -5.0460     2.9360 hc         1 CTC       0.025033
     50 H6'2        -3.3240    -3.6360     2.2520 hc         1 CTC       0.025033
     51 H6'3        -1.9710    -3.4160     3.3710 hc         1 CTC       0.025033
     52 H8          -2.9000    -8.1600    -0.1400 ha         1 CTC       0.140000
     53 H9          -1.9500    -7.6070    -2.4770 ha         1 CTC       0.151000
     54 HO1         -3.5140    -5.7390    -3.6340 ho         1 CTC       0.410000
     55 HO2         -2.0260    -0.4130    -2.3260 ho         1 CTC       0.420000
     56 HO4         -0.0290     1.2770    -1.4940 ho         1 CTC       0.440000
     57 H2'3         5.3420     0.1260     0.5370 hn         1 CTC       0.249800
@<TRIPOS>BOND
     1     1     2 2   
     2     1     3 1   
     3     1    32 1   
     4     3     4 1   
     5     3     7 2   
     6     4     5 2   
     7     4     6 1   
     8     6    34 1   
     9     6    35 1   
    10     6    57 1   
    11     7     8 1   
    12     7     9 1   
    13     8    36 1   
    14     9    10 1   
    15     9    13 1   
    16     9    37 1   
    17    10    11 1   
    18    10    12 1   
    19    11    38 1   
    20    11    39 1   
    21    11    40 1   
    22    12    41 1   
    23    12    42 1   
    24    12    43 1   
    25    13    14 1   
    26    13    32 1   
    27    13    44 1   
    28    14    15 1   
    29    14    45 1   
    30    14    46 1   
    31    15    16 1   
    32    15    29 1   
    33    15    47 1   
    34    16    17 1   
    35    16    18 1   
    36    16    19 1   
    37    17    48 1   
    38    18    49 1   
    39    18    50 1   
    40    18    51 1   
    41    19    20 ar  
    42    19    26 ar  
    43    20    21 1   
    44    20    22 ar  
    45    22    23 ar  
    46    22    52 1   
    47    23    24 ar  
    48    23    53 1   
    49    24    25 1   
    50    24    26 ar  
    51    25    54 1   
    52    26    27 1   
    53    27    28 2   
    54    27    29 1   
    55    29    30 2   
    56    30    31 1   
    57    30    32 1   
    58    31    55 1   
    59    32    33 1   
    60    33    56 1   
@<TRIPOS>SUBSTRUCTURE
     1 CTC         1 TEMP              0 ****  ****    0 ROOT
