@<TRIPOS>MOLECULE
molecule
   32    33     1     0     0
SMALL
bcc


@<TRIPOS>ATOM
      1 N1           0.0000     0.0000     0.0000 n          1 CTD      -0.294000
      2 C2           1.3460     0.0000     0.0000 c          1 CTD       0.686700
      3 C3           2.0480     0.0000     1.2090 cc         1 CTD      -0.190200
      4 C4           1.3420    -0.0010     2.3990 cd         1 CTD      -0.002000
      5 C5          -0.0690    -0.0080     2.3540 cd         1 CTD      -0.296000
      6 C6          -0.7020    -0.0020     1.1630 cc         1 CTD       0.102600
      7 O2           1.9550     0.0010    -1.0580 o          1 CTD      -0.561500
      8 N4           2.0070    -0.0030     3.6120 nz         1 CTD      -0.661400
      9 C1'         -0.7190     0.0000    -1.2750 c3         1 CTD       0.266500
     10 C2'         -1.6420    -1.2340    -1.3730 c3         1 CTD       0.087100
     11 O2'         -1.0240    -2.2700    -2.1390 oh         1 CTD      -0.551800
     12 C3'         -2.9020    -0.7030    -2.0970 c3         1 CTD       0.101100
     13 C4'         -2.5870     0.7870    -2.3540 c3         1 CTD       0.131100
     14 O4'         -1.6080     1.1340    -1.3500 os         1 CTD      -0.399600
     15 O3'         -3.0980    -1.3930    -3.3330 oh         1 CTD      -0.557800
     16 C5'         -3.8480     1.6370    -2.1860 c3         1 CTD       0.150400
     17 O5'         -3.5190     3.0160    -2.3550 oh         1 CTD      -0.592800
     18 H3           3.1320     0.0030     1.2140 ha         1 CTD       0.183000
     19 H5          -0.6410    -0.0090     3.2740 ha         1 CTD       0.164000
     20 H6          -1.7850    -0.0050     1.1330 h4         1 CTD       0.193000
     21 HN41         2.2880    -0.9360     3.8370 hn         1 CTD       0.464467
     22 HN42         2.8160     0.5830     3.5490 hn         1 CTD       0.464467
     23 H1'         -0.0240     0.0150    -2.1060 h2         1 CTD       0.148700
     24 H2'         -1.9000    -1.5900    -0.3830 h1         1 CTD       0.035700
     25 HO2'        -1.0950    -3.0880    -1.6760 ho         1 CTD       0.412000
     26 H3'         -3.7720    -0.8000    -1.4600 h1         1 CTD       0.050700
     27 H4'         -2.1680     0.9150    -3.3450 h1         1 CTD       0.103700
     28 HO3'        -3.9090    -1.8740    -3.2990 ho         1 CTD       0.414000
     29 H5'1        -4.2580     1.4820    -1.1960 h1         1 CTD       0.034200
     30 H5'2        -4.5800     1.3470    -2.9300 h1         1 CTD       0.034200
     31 HO5'        -4.3080     3.5320    -2.3340 ho         1 CTD       0.415000
     32 H43          1.3970     0.3400     4.3270 hn         1 CTD       0.464467
@<TRIPOS>BOND
     1     1     2 1
     2     1     6 1
     3     1     9 1
     4     2     3 1
     5     2     7 2
     6     3     4 2
     7     3    18 1
     8     4     5 1
     9     4     8 1
    10     5     6 2
    11     5    19 1
    12     6    20 1
    13     8    21 1
    14     8    22 1
    15     9    10 1
    16     9    14 1
    17     9    23 1
    18    10    11 1
    19    10    12 1
    20    10    24 1
    21    11    25 1
    22    12    13 1
    23    12    15 1
    24    12    26 1
    25    13    14 1
    26    13    16 1
    27    13    27 1
    28    15    28 1
    29    16    17 1
    30    16    29 1
    31    16    30 1
    32    17    31 1
    33    32     8 1
@<TRIPOS>SUBSTRUCTURE
     1 CTD         1 TEMP              0 ****  ****    0 ROOT
