@<TRIPOS>MOLECULE
CTF
   57    60     1     0     0
SMALL
bcc


@<TRIPOS>ATOM
      1 C1           0.0000     0.0000     0.0000 ca         1 CTF       0.001100
      2 O1           0.0140    -2.2680    -1.5270 o          1 CTF      -0.635800
      3 O2          -1.2760    -1.2600    -2.8300 o          1 CTF      -0.635800
      4 C2           1.3920     0.0000     0.0000 ca         1 CTF       0.190100
      5 C3           2.0730     0.0000     1.2030 ca         1 CTF      -0.189000
      6 C4           1.3820    -0.0010     2.4070 ca         1 CTF       0.016700
      7 S1          -0.9940    -1.3940    -1.7070 s6         1 CTF       1.646400
      8 N1          -2.2280    -2.0060    -0.7870 nz         1 CTF      -0.222500
      9 O3          -0.6840    -0.0030    -1.1760 os         1 CTF      -0.361800
     10 C5           0.0040     0.0070     2.4090 ca         1 CTF      -0.084300
     11 C6          -0.6840    -0.0020     1.2020 ca         1 CTF      -0.147000
     12 O4           2.0760     0.0010    -1.1750 os         1 CTF      -0.297900
     13 C7           3.5030     0.0010    -1.0940 c3         1 CTF       0.251700
     14 C8           2.1770    -0.0240     3.6810 c3         1 CTF      -0.002400
     15 C9           1.3210     0.4940     4.8440 c3         1 CTF      -0.056700
     16 C10          0.0380    -0.3370     4.8890 c3         1 CTF      -0.029400
     17 C11         -0.8130     0.0330     3.6750 c3         1 CTF       0.043900
     18 C12          3.4730     0.7630     3.5530 c3         1 CTF      -0.034400
     19 C13          4.2620     0.7330     4.8760 c3         1 CTF      -0.004400
     20 C14          3.3610     1.2870     5.9600 c3         1 CTF      -0.067000
     21 C15          2.1420     0.3340     6.1060 c3         1 CTF      -0.047700
     22 C16          2.8760     2.6820     5.5600 c3         1 CTF      -0.041100
     23 C17          3.9350     1.3440     7.3710 c3         1 CTF      -0.038700
     24 C18          2.7260     1.1210     8.3130 c3         1 CTF      -0.028400
     25 C19          1.5000     0.8530     7.3970 c3         1 CTF      -0.032400
     26 C20          4.5650     2.7130     7.6320 c3         1 CTF       0.105700
     27 C21          5.2180     2.7100     8.9520 c1         1 CTF       0.177700
     28 N2           5.7040     2.7040     9.9780 n1         1 CTF      -0.369800
     29 H3           3.1560    -0.0000     1.2130 ha         1 CTF       0.154000
     30 HN1         -1.8600    -2.3490     0.0780 hn         1 CTF       0.320467
     31 HN1A        -2.8960    -1.2840    -0.6030 hn         1 CTF       0.320467
     32 H6          -1.7680    -0.0020     1.2080 ha         1 CTF       0.091000
     33 H7           3.8410     0.9400    -0.6740 h1         1 CTF       0.009033
     34 H7A          3.9200    -0.1230    -2.0860 h1         1 CTF       0.009033
     35 H7B          3.8280    -0.8160    -0.4610 h1         1 CTF       0.009033
     36 H8           2.4350    -1.0550     3.8920 hc         1 CTF       0.045700
     37 H9           1.0800     1.5380     4.6890 hc         1 CTF       0.057700
     38 H10         -0.6230     0.1020     5.6280 hc         1 CTF       0.034700
     39 H10A         0.3030    -1.3550     5.1460 hc         1 CTF       0.034700
     40 H11         -1.4490     0.9090     3.6390 hc         1 CTF       0.022200
     41 H11A        -1.4460    -0.8470     3.6760 hc         1 CTF       0.022200
     42 H12          3.2370     1.7940     3.3170 hc         1 CTF       0.024700
     43 H12A         4.0650     0.3380     2.7510 hc         1 CTF       0.024700
     44 H13          5.1120     1.3990     4.7950 hc         1 CTF       0.024700
     45 H13A         4.6120    -0.2770     5.0550 hc         1 CTF       0.024700
     46 H15          2.4720    -0.6910     6.2260 hc         1 CTF       0.043700
     47 H16          2.1330     3.0240     6.2710 hc         1 CTF       0.023033
     48 H16A         2.4360     2.6420     4.5700 hc         1 CTF       0.023033
     49 H16B         3.7140     3.3690     5.5550 hc         1 CTF       0.023033
     50 H17          4.6650     0.5560     7.5080 hc         1 CTF       0.044700
     51 H18          2.6830     1.9040     9.0610 hc         1 CTF       0.028700
     52 H18A         2.7890     0.1460     8.7820 hc         1 CTF       0.028700
     53 H19          1.1420     1.8660     7.2570 hc         1 CTF       0.024700
     54 H19A         0.6920     0.2000     7.7030 hc         1 CTF       0.024700
     55 H20          3.7830     3.4500     7.7710 hc         1 CTF       0.038200
     56 H20A         5.1810     2.9950     6.7870 hc         1 CTF       0.038200
     57 H131        -2.6700    -2.7570    -1.2790 hn         1 CTF       0.320467
@<TRIPOS>BOND
     1     1     4 ar  
     2     1     9 1   
     3     1    11 ar  
     4     2     7 2   
     5     3     7 2   
     6     4     5 ar  
     7     4    12 1   
     8     5     6 ar  
     9     5    29 1   
    10     6    10 ar  
    11     6    14 1   
    12     7     8 1   
    13     7     9 1   
    14     8    30 1   
    15     8    31 1   
    16     8    57 1   
    17    10    11 ar  
    18    10    17 1   
    19    11    32 1   
    20    12    13 1   
    21    13    33 1   
    22    13    34 1   
    23    13    35 1   
    24    14    15 1   
    25    14    18 1   
    26    14    36 1   
    27    15    16 1   
    28    15    21 1   
    29    15    37 1   
    30    16    17 1   
    31    16    38 1   
    32    16    39 1   
    33    17    40 1   
    34    17    41 1   
    35    18    19 1   
    36    18    42 1   
    37    18    43 1   
    38    19    20 1   
    39    19    44 1   
    40    19    45 1   
    41    20    21 1   
    42    20    22 1   
    43    20    23 1   
    44    21    25 1   
    45    21    46 1   
    46    22    47 1   
    47    22    48 1   
    48    22    49 1   
    49    23    24 1   
    50    23    26 1   
    51    23    50 1   
    52    24    25 1   
    53    24    51 1   
    54    24    52 1   
    55    25    53 1   
    56    25    54 1   
    57    26    27 1   
    58    26    55 1   
    59    26    56 1   
    60    27    28 3   
@<TRIPOS>SUBSTRUCTURE
     1 CTF         1 TEMP              0 ****  ****    0 ROOT
