@<TRIPOS>MOLECULE
molecule
   57    60     1     0     0
SMALL
bcc


@<TRIPOS>ATOM
      1 C1           0.0000     0.0000     0.0000 ca         1 CTF      -0.032900
      2 O1           0.0140    -2.2680    -1.5270 o          1 CTF      -0.684800
      3 O2          -1.2760    -1.2600    -2.8300 o          1 CTF      -0.684800
      4 C2           1.3920     0.0000     0.0000 ca         1 CTF       0.195100
      5 C3           2.0730     0.0000     1.2030 ca         1 CTF      -0.203000
      6 C4           1.3820    -0.0010     2.4070 ca         1 CTF       0.024700
      7 S1          -0.9940    -1.3940    -1.7070 s6         1 CTF       1.932400
      8 N1          -2.2280    -2.0060    -0.7870 nz         1 CTF      -0.871500
      9 O3          -0.6840    -0.0030    -1.1760 os         1 CTF      -0.461800
     10 C5           0.0040     0.0070     2.4090 ca         1 CTF      -0.082300
     11 C6          -0.6840    -0.0020     1.2020 ca         1 CTF      -0.150000
     12 O4           2.0760     0.0010    -1.1750 os         1 CTF      -0.311900
     13 C7           3.5030     0.0010    -1.0940 c3         1 CTF       0.124700
     14 C8           2.1770    -0.0240     3.6810 c3         1 CTF      -0.034400
     15 C9           1.3210     0.4940     4.8440 c3         1 CTF      -0.062700
     16 C10          0.0380    -0.3370     4.8890 c3         1 CTF      -0.082400
     17 C11         -0.8130     0.0330     3.6750 c3         1 CTF      -0.031100
     18 C12          3.4730     0.7630     3.5530 c3         1 CTF      -0.078400
     19 C13          4.2620     0.7330     4.8760 c3         1 CTF      -0.061400
     20 C14          3.3610     1.2870     5.9600 c3         1 CTF      -0.067000
     21 C15          2.1420     0.3340     6.1060 c3         1 CTF      -0.067700
     22 C16          2.8760     2.6820     5.5600 c3         1 CTF      -0.098100
     23 C17          3.9350     1.3440     7.3710 c3         1 CTF      -0.055700
     24 C18          2.7260     1.1210     8.3130 c3         1 CTF      -0.083400
     25 C19          1.5000     0.8530     7.3970 c3         1 CTF      -0.083400
     26 C20          4.5650     2.7130     7.6320 c3         1 CTF      -0.010300
     27 C21          5.2180     2.7100     8.9520 c1         1 CTF       0.200700
     28 N2           5.7040     2.7040     9.9780 n1         1 CTF      -0.356800
     29 H3           3.1560    -0.0000     1.2130 ha         1 CTF       0.173000
     30 HN1         -1.8600    -2.3490     0.0780 hn         1 CTF       0.493133
     31 HN1A        -2.8960    -1.2840    -0.6030 hn         1 CTF       0.493133
     32 H6          -1.7680    -0.0020     1.2080 ha         1 CTF       0.118000
     33 H7           3.8410     0.9400    -0.6740 h1         1 CTF       0.059700
     34 H7A          3.9200    -0.1230    -2.0860 h1         1 CTF       0.059700
     35 H7B          3.8280    -0.8160    -0.4610 h1         1 CTF       0.059700
     36 H8           2.4350    -1.0550     3.8920 hc         1 CTF       0.074700
     37 H9           1.0800     1.5380     4.6890 hc         1 CTF       0.073700
     38 H10         -0.6230     0.1020     5.6280 hc         1 CTF       0.065700
     39 H10A         0.3030    -1.3550     5.1460 hc         1 CTF       0.065700
     40 H11         -1.4490     0.9090     3.6390 hc         1 CTF       0.057700
     41 H11A        -1.4460    -0.8470     3.6760 hc         1 CTF       0.057700
     42 H12          3.2370     1.7940     3.3170 hc         1 CTF       0.048200
     43 H12A         4.0650     0.3380     2.7510 hc         1 CTF       0.048200
     44 H13          5.1120     1.3990     4.7950 hc         1 CTF       0.053700
     45 H13A         4.6120    -0.2770     5.0550 hc         1 CTF       0.053700
     46 H15          2.4720    -0.6910     6.2260 hc         1 CTF       0.063700
     47 H16          2.1330     3.0240     6.2710 hc         1 CTF       0.043700
     48 H16A         2.4360     2.6420     4.5700 hc         1 CTF       0.043700
     49 H16B         3.7140     3.3690     5.5550 hc         1 CTF       0.043700
     50 H17          4.6650     0.5560     7.5080 hc         1 CTF       0.069700
     51 H18          2.6830     1.9040     9.0610 hc         1 CTF       0.058700
     52 H18A         2.7890     0.1460     8.7820 hc         1 CTF       0.058700
     53 H19          1.1420     1.8660     7.2570 hc         1 CTF       0.050700
     54 H19A         0.6920     0.2000     7.7030 hc         1 CTF       0.050700
     55 H20          3.7830     3.4500     7.7710 hc         1 CTF       0.074200
     56 H20A         5.1810     2.9950     6.7870 hc         1 CTF       0.074200
     57 H131        -2.6700    -2.7570    -1.2790 hn         1 CTF       0.493133
@<TRIPOS>BOND
     1     1     4 ar
     2     1     9 1
     3     1    11 ar
     4     2     7 2
     5     3     7 2
     6     4     5 ar
     7     4    12 1
     8     5     6 ar
     9     6    10 ar
    10     6    14 1
    11     7     8 1
    12     7     9 1
    13    10    11 ar
    14    10    17 1
    15    12    13 1
    16    14    15 1
    17    14    18 1
    18    15    16 1
    19    15    21 1
    20    16    17 1
    21    18    19 1
    22    19    20 1
    23    20    21 1
    24    20    22 1
    25    20    23 1
    26    21    25 1
    27    23    24 1
    28    23    26 1
    29    24    25 1
    30    26    27 1
    31    27    28 3
    32     5    29 1
    33     8    30 1
    34     8    31 1
    35    11    32 1
    36    13    33 1
    37    13    34 1
    38    13    35 1
    39    14    36 1
    40    15    37 1
    41    16    38 1
    42    16    39 1
    43    17    40 1
    44    17    41 1
    45    18    42 1
    46    18    43 1
    47    19    44 1
    48    19    45 1
    49    21    46 1
    50    22    47 1
    51    22    48 1
    52    22    49 1
    53    23    50 1
    54    24    51 1
    55    24    52 1
    56    25    53 1
    57    25    54 1
    58    26    55 1
    59    26    56 1
    60    57     8 1
@<TRIPOS>SUBSTRUCTURE
     1 CTF         1 TEMP              0 ****  ****    0 ROOT
