@<TRIPOS>MOLECULE
CTI
   44    48     1     0     0
SMALL
bcc


@<TRIPOS>ATOM
      1 C1         -0.0660    0.0410    0.1280 ca        1 CTI     -0.155000
      2 C2          1.3600   -0.0670    0.1300 ca        1 CTI     -0.028000
      3 C3          2.0540   -0.1430    1.3680 ca        1 CTI     -0.016000
      4 C4          1.3630   -0.2820    2.6120 ca        1 CTI     -0.109000
      5 C5          2.1430   -0.0370   -1.0840 ca        1 CTI     -0.009300
      6 C6          3.5230    0.2860   -1.0160 ca        1 CTI     -0.011000
      7 C7          4.1700    0.2510    0.2490 ca        1 CTI     -0.124000
      8 C8          3.4720   -0.0170    1.3920 ca        1 CTI     -0.069000
      9 N9          1.5820   -0.3180   -2.3520 na        1 CTI      0.023900
     10 C10         4.2540    0.6270   -2.2120 ca        1 CTI      0.030000
     11 C11         3.5800    0.5030   -3.4580 ca        1 CTI     -0.131000
     12 C12         2.2650   -0.0340   -3.4710 ca        1 CTI      0.075700
     13 C13         0.3480   -1.0820   -2.4900 c3        1 CTI     -0.029400
     14 C14         5.5500    1.3360   -4.6330 ca        1 CTI      0.065100
     15 C15         6.2070    1.4460   -3.3950 ca        1 CTI     -0.091000
     16 C16         5.5750    1.0990   -2.2100 ca        1 CTI     -0.131000
     17 C17         4.2240    0.8620   -4.6790 ca        1 CTI      0.182100
     18 O18         3.4400    0.6920   -5.7860 os        1 CTI     -0.335900
     19 C19         3.9740    1.0220   -7.0720 c3        1 CTI      0.124700
     20 O20         6.1320    1.6690   -5.8370 os        1 CTI     -0.326900
     21 C21         7.4720    2.1620   -5.7890 c3        1 CTI      0.107700
     22 C22        -0.7060   -0.0750    1.3290 ca        1 CTI      0.103100
     23 C23        -0.0000   -0.2610    2.5670 ca        1 CTI      0.094100
     24 O24        -2.0630   -0.0200    1.5880 os        1 CTI     -0.320900
     25 C25        -2.2350   -0.1910    3.0200 c3        1 CTI      0.320200
     26 O26        -0.9150   -0.3470    3.6000 os        1 CTI     -0.311900
     27 H1         -0.6410    0.2830   -0.7740 ha        1 CTI      0.160000
     28 H4          1.9230   -0.3830    3.5530 ha        1 CTI      0.179000
     29 H7          5.2580    0.4190    0.3010 ha        1 CTI      0.160000
     30 H8          3.9920   -0.1020    2.3620 ha        1 CTI      0.165000
     31 H12         1.7800   -0.2580   -4.4510 h4        1 CTI      0.212000
     32 H13         0.4440   -1.7910   -3.3580 h1        1 CTI      0.094700
     33 H13A       -0.5110   -0.3850   -2.6860 h1        1 CTI      0.094700
     34 H13B        0.1620   -1.6840   -1.5600 h1        1 CTI      0.094700
     35 H15         7.2440    1.8200   -3.3570 ha        1 CTI      0.168000
     36 H16         6.1280    1.2150   -1.2640 ha        1 CTI      0.163000
     37 H19         4.8610    0.3830   -7.2970 h1        1 CTI      0.069033
     38 H19A        4.2380    2.1050   -7.1140 h1        1 CTI      0.069033
     39 H19B        3.1190    0.7850   -7.7580 h1        1 CTI      0.069033
     40 H21         7.7020    2.3590   -6.8680 h1        1 CTI      0.061700
     41 H21A        8.1600    1.3880   -5.3730 h1        1 CTI      0.061700
     42 H21B        7.5210    3.1070   -5.1960 h1        1 CTI      0.061700
     43 H25        -2.7000    0.7370    3.4350 h2        1 CTI      0.096200
     44 H25A       -2.8150   -1.1300    3.1980 h2        1 CTI      0.096200
@<TRIPOS>BOND
     1    1    2 ar  
     2    1   22 ar  
     3    1   27 1   
     4    2    3 ar  
     5    2    5 ar  
     6    3    4 ar  
     7    3    8 ar  
     8    4   23 ar  
     9    4   28 1   
    10    5    6 ar  
    11    5    9 1   
    12    6    7 ar  
    13    6   10 ar  
    14    7    8 ar  
    15    7   29 1   
    16    8   30 1   
    17    9   12 2   
    18    9   13 1   
    19   10   11 ar  
    20   10   16 ar  
    21   11   12 ar  
    22   11   17 ar  
    23   12   31 1   
    24   13   32 1   
    25   13   33 1   
    26   13   34 1   
    27   14   15 ar  
    28   14   17 ar  
    29   14   20 1   
    30   15   16 ar  
    31   15   35 1   
    32   16   36 1   
    33   17   18 1   
    34   18   19 1   
    35   19   37 1   
    36   19   38 1   
    37   19   39 1   
    38   20   21 1   
    39   21   40 1   
    40   21   41 1   
    41   21   42 1   
    42   22   23 ar  
    43   22   24 1   
    44   23   26 1   
    45   24   25 1   
    46   25   26 1   
    47   25   43 1   
    48   25   44 1   
@<TRIPOS>SUBSTRUCTURE
     1 CTI         1 TEMP              0 ****  ****    0 ROOT
