@<TRIPOS>MOLECULE
molecule
   44    48     1     0     0
SMALL
bcc


@<TRIPOS>ATOM
      1 C1           0.0000     0.0000     0.0000 ca         1 CTI      -0.148000
      2 C2           1.3950     0.0000     0.0000 ca         1 CTI      -0.022000
      3 C3           2.0620     0.0000     1.2530 ca         1 CTI      -0.027000
      4 C4           1.3400    -0.2270     2.4340 ca         1 CTI      -0.095000
      5 C5           2.2090    -0.0280    -1.2150 ca         1 CTI      -0.037300
      6 C6           3.5760     0.3200    -1.0830 ca         1 CTI       0.010000
      7 C7           4.1590     0.4740     0.1830 ca         1 CTI      -0.138000
      8 C8           3.4440     0.2850     1.3130 ca         1 CTI      -0.044000
      9 N9           1.7760    -0.4380    -2.4080 na         1 CTI       0.078900
     10 C10          4.3550     0.5580    -2.3010 ca         1 CTI      -0.006000
     11 C11          3.7130     0.3250    -3.5440 ca         1 CTI      -0.098000
     12 C12          2.4130    -0.2060    -3.5300 ca         1 CTI       0.032700
     13 C13          0.5950    -1.3000    -2.5300 c3         1 CTI      -0.022400
     14 C14          5.7070     1.0560    -4.6750 ca         1 CTI       0.144100
     15 C15          6.3390     1.2330    -3.4470 ca         1 CTI      -0.134000
     16 C16          5.6780     0.9930    -2.2750 ca         1 CTI      -0.092000
     17 C17          4.3970     0.6110    -4.7360 ca         1 CTI       0.125100
     18 O18          3.7840     0.4530    -5.9380 os         1 CTI      -0.336900
     19 C19          3.0800     1.5800    -6.4610 c3         1 CTI       0.127700
     20 O20          6.3820     1.3230    -5.8250 os         1 CTI      -0.294900
     21 C21          7.7300     1.7800    -5.6950 c3         1 CTI       0.117700
     22 C22         -0.7050    -0.1550     1.1740 ca         1 CTI       0.104100
     23 C23         -0.0310    -0.2950     2.3950 ca         1 CTI       0.086100
     24 O24         -2.0430    -0.2130     1.4270 os         1 CTI      -0.315900
     25 C25         -2.2110    -0.0000     2.8360 c3         1 CTI       0.337200
     26 O26         -0.9680    -0.4850     3.3660 os         1 CTI      -0.308900
     27 H1          -0.5350     0.1320    -0.9320 ha         1 CTI       0.147000
     28 H4           1.8610    -0.3080     3.3800 ha         1 CTI       0.170000
     29 H7           5.2040     0.7510     0.2560 ha         1 CTI       0.158000
     30 H8           3.9350     0.3530     2.2760 ha         1 CTI       0.162000
     31 H12          1.9250    -0.4310    -4.4710 h4         1 CTI       0.206000
     32 H13         -0.2860    -0.6860    -2.6760 h1         1 CTI       0.092700
     33 H13A         0.7180    -1.9620    -3.3790 h1         1 CTI       0.092700
     34 H13B         0.4820    -1.8870    -1.6270 h1         1 CTI       0.092700
     35 H15          7.3640     1.5830    -3.4200 ha         1 CTI       0.168000
     36 H16          6.1840     1.1360    -1.3280 ha         1 CTI       0.162000
     37 H19          2.9380     2.3130    -5.6750 h1         1 CTI       0.050367
     38 H19A         2.1150     1.2610    -6.8350 h1         1 CTI       0.050367
     39 H19B         3.6520     2.0220    -7.2670 h1         1 CTI       0.050367
     40 H21          7.7450     2.6990    -5.1210 h1         1 CTI       0.057367
     41 H21A         8.3190     1.0260    -5.1850 h1         1 CTI       0.057367
     42 H21B         8.1470     1.9600    -6.6780 h1         1 CTI       0.057367
     43 H25         -3.0430    -0.5810     3.2150 h2         1 CTI       0.091700
     44 H25A        -2.3360     1.0540     3.0530 h2         1 CTI       0.091700
@<TRIPOS>BOND
     1     1     2 ar
     2     1    22 ar
     3     2     3 ar
     4     2     5 ar
     5     3     4 ar
     6     3     8 ar
     7     4    23 ar
     8     5     6 ar
     9     5     9 1
    10     6     7 ar
    11     6    10 ar
    12     7     8 ar
    13     9    12 2
    14     9    13 1
    15    10    11 ar
    16    10    16 ar
    17    11    12 ar
    18    11    17 ar
    19    14    15 ar
    20    14    17 ar
    21    14    20 1
    22    15    16 ar
    23    17    18 1
    24    18    19 1
    25    20    21 1
    26    22    23 ar
    27    22    24 1
    28    23    26 1
    29    24    25 1
    30    25    26 1
    31     1    27 1
    32     4    28 1
    33     7    29 1
    34     8    30 1
    35    12    31 1
    36    13    32 1
    37    13    33 1
    38    13    34 1
    39    15    35 1
    40    16    36 1
    41    19    37 1
    42    19    38 1
    43    19    39 1
    44    21    40 1
    45    21    41 1
    46    21    42 1
    47    25    43 1
    48    25    44 1
@<TRIPOS>SUBSTRUCTURE
     1 CTI         1 TEMP              0 ****  ****    0 ROOT
