@<TRIPOS>MOLECULE
molecule
   60    62     1     0     0
SMALL
bcc


@<TRIPOS>ATOM
      1 C            0.0000     0.0000     0.0000 c          1 CTJ       0.556900
      2 O            1.2080     0.0000     0.0000 o          1 CTJ      -0.487100
      3 S1          -0.5950     2.7450     1.2930 ss         1 CTJ      -0.360200
      4 C2          -1.8590     4.0520     1.2760 c3         1 CTJ       0.090900
      5 C3          -2.9520     3.6750     0.3190 c2         1 CTJ      -0.378400
      6 C4          -3.2230     2.4590    -0.0950 ce         1 CTJ       0.208800
      7 N5          -2.5550     1.2890     0.2430 nu         1 CTJ      -0.776000
      8 C6          -1.6320     1.2490     1.3870 c3         1 CTJ       0.341600
      9 CA          -0.7540     0.0000     1.3050 c3         1 CTJ       0.006700
     10 N10          0.1980    -0.0030     2.4190 ns         1 CTJ      -0.586900
     11 C11          0.7120    -1.1660     2.8630 c          1 CTJ       0.557800
     12 O12          0.4600    -2.2040     2.2830 o          1 CTJ      -0.544100
     13 C13          1.5860    -1.1800     4.0610 ce         1 CTJ       0.249300
     14 C14          1.9890     0.0920     4.6970 cc         1 CTJ       0.408000
     15 C15          2.8780     0.1440     5.7080 cd         1 CTJ      -0.164400
     16 N16          1.9980    -2.3150     4.5520 n2         1 CTJ      -0.379200
     17 S16          3.0820     1.8290     6.1790 ss         1 CTJ      -0.324300
     18 C17          1.9250     2.3180     4.9450 cd         1 CTJ       0.757300
     19 O17          1.7090    -3.5260     3.8780 os         1 CTJ      -0.086300
     20 C18          2.2220    -4.6900     4.5280 c3         1 CTJ       0.033800
     21 N18          1.5330     3.6210     4.6890 nv         1 CTJ      -0.997500
     22 C19          3.7440    -4.5850     4.6360 c3         1 CTJ      -0.095100
     23 N19          1.5020     1.2710     4.3090 nc         1 CTJ      -0.775000
     24 C20          1.6190    -4.7980     5.9300 c3         1 CTJ      -0.095100
     25 C21          1.8570    -5.9140     3.7290 c          1 CTJ       0.907600
     26 O2A          2.2380    -7.1300     4.1520 o          1 CTJ      -0.817800
     27 O2B          1.2240    -5.8010     2.7060 o          1 CTJ      -0.817800
     28 C3'         -3.8170     4.7900    -0.2130 c3         1 CTJ       0.042500
     29 C4'         -4.3600     2.3190    -1.0240 c          1 CTJ       0.845800
     30 O4A         -5.6230     2.4180    -0.5610 o          1 CTJ      -0.803300
     31 O4B         -4.1590     2.1170    -2.2050 o          1 CTJ      -0.803300
     32 H           -0.5410    -0.0200    -0.9380 h4         1 CTJ      -0.003800
     33 H2          -1.4080     4.9850     0.9590 h1         1 CTJ       0.050200
     34 H2A         -2.2740     4.1650     2.2700 h1         1 CTJ       0.050200
     35 HN5         -2.7050     0.4610    -0.2990 hn         1 CTJ       0.468800
     36 H6          -2.1950     1.2510     2.3130 h2         1 CTJ       0.088700
     37 HA          -1.3770    -0.8840     1.3610 h1         1 CTJ       0.112700
     38 HN10         0.4590     0.8590     2.8560 hn         1 CTJ       0.360500
     39 H15          3.3820    -0.7050     6.1540 h4         1 CTJ       0.204000
     40 HN18         0.8850     3.8120     3.9510 hn         1 CTJ       0.445300
     41 HN1A         1.9000     4.3720     5.2390 hn         1 CTJ       0.445300
     42 H19          4.1510    -5.5410     4.9430 hc         1 CTJ       0.032367
     43 H19A         4.0040    -3.8310     5.3690 hc         1 CTJ       0.032367
     44 H19B         4.1570    -4.3100     3.6730 hc         1 CTJ       0.032367
     45 H20          0.5400    -4.7280     5.8660 hc         1 CTJ       0.032367
     46 H20A         1.8930    -5.7500     6.3690 hc         1 CTJ       0.032367
     47 H20B         1.9970    -3.9940     6.5490 hc         1 CTJ       0.032367
     48 H3'         -4.7740     4.3890    -0.5240 h1         1 CTJ       0.111200
     49 H3'A        -3.9710     5.5300     0.5640 h1         1 CTJ       0.111200
     50 N6          -3.1550     5.4170    -1.3590 na         1 CTJ       0.100900
     51 C26         -3.4850     5.0370    -2.5770 ca         1 CTJ      -0.030800
     52 C25         -2.8830     5.6060    -3.6830 ca         1 CTJ      -0.152500
     53 C24         -1.9200     6.5870    -3.4990 ca         1 CTJ      -0.050000
     54 C23         -1.6000     6.9600    -2.2030 ca         1 CTJ      -0.152500
     55 C22         -2.2480     6.3500    -1.1450 ca         1 CTJ      -0.030800
     56 H26         -4.2440     4.2750    -2.7130 h4         1 CTJ       0.223000
     57 H25         -3.2760     5.4120    -4.6740 ha         1 CTJ       0.174500
     58 H24         -1.2750     6.8750    -4.3200 ha         1 CTJ       0.167000
     59 H23         -0.9770     7.8290    -2.0270 ha         1 CTJ       0.174500
     60 H22         -2.0130     6.6460    -0.1300 h4         1 CTJ       0.223000
@<TRIPOS>BOND
     1     1     2 2
     2     1     9 1
     3     1    32 1
     4     3     4 1
     5     3     8 1
     6     4     5 1
     7     4    33 1
     8     4    34 1
     9     5     6 2
    10     5    28 1
    11     6     7 1
    12     6    29 1
    13     7     8 1
    14     7    35 1
    15     8     9 1
    16     8    36 1
    17     9    10 1
    18     9    37 1
    19    10    11 1
    20    10    38 1
    21    11    12 2
    22    11    13 1
    23    13    14 1
    24    13    16 2
    25    14    15 2
    26    14    23 1
    27    15    17 1
    28    15    39 1
    29    16    19 1
    30    17    18 1
    31    18    21 1
    32    18    23 2
    33    19    20 1
    34    20    22 1
    35    20    24 1
    36    20    25 1
    37    21    40 1
    38    21    41 1
    39    22    42 1
    40    22    43 1
    41    22    44 1
    42    24    45 1
    43    24    46 1
    44    24    47 1
    45    25    26 1
    46    25    27 1
    47    28    48 1
    48    28    49 1
    49    29    30 1
    50    29    31 1
    51    28    50 1
    52    50    51 1
    53    50    55 2
    54    51    52 ar
    55    52    53 ar
    56    53    54 ar
    57    54    55 ar
    58    51    56 1
    59    52    57 1
    60    53    58 1
    61    54    59 1
    62    55    60 1
@<TRIPOS>SUBSTRUCTURE
     1 CTJ         1 TEMP              0 ****  ****    0 ROOT
