@<TRIPOS>MOLECULE
molecule
   29    29     1     0     0
SMALL
bcc


@<TRIPOS>ATOM
      1 CAA          0.0000     0.0000     0.0000 c3         1 CTK      -0.254300
      2 CAC          3.8790    -1.4310     6.2730 ca         1 CTK      -0.288300
      3 CAD          2.9570    -2.3770     5.8360 ca         1 CTK       0.660200
      4 CAE          4.4800    -1.6000     7.5210 ca         1 CTK      -0.038600
      5 CAG          4.1200    -2.7170     8.2840 ca         1 CTK      -0.262300
      6 CAH          3.1930    -3.6060     7.7790 ca         1 CTK       0.414200
      7 CAI          5.4710    -0.6230     8.0250 c          1 CTK       0.881200
      8 CAM          2.6890    -1.0770     3.7500 c3         1 CTK       0.242800
      9 CAN          1.8920    -1.1500     2.4460 c3         1 CTK       0.212800
     10 NAF          2.6480    -3.4180     6.5920 nb         1 CTK      -0.792000
     11 NAL          2.3530    -2.2270     4.5930 nu         1 CTK      -0.944900
     12 NAO          2.2280     0.0000     1.6030 n7         1 CTK      -0.909100
     13 OAB          2.3130    -1.2370    -0.4910 o          1 CTK      -0.631300
     14 OAJ          5.7720     0.3410     7.3500 o          1 CTK      -0.831300
     15 OAK          6.0410    -0.8030     9.2320 o          1 CTK      -0.831300
     16 OAQ          2.3130     1.2370    -0.4910 o          1 CTK      -0.631300
     17 SAP          1.8140     0.0000     0.0000 s6         1 CTK       1.328900
     18 H1          -0.3610     0.3280    -0.9670 h1         1 CTK       0.095033
     19 H2          -0.3610     0.6740     0.7670 h1         1 CTK       0.095033
     20 H3          -0.3610    -1.0020     0.2000 h1         1 CTK       0.095033
     21 H5           4.5630    -2.8820     9.2590 ha         1 CTK       0.157000
     22 H6           2.9100    -4.4720     8.3650 h4         1 CTK      -0.003900
     23 H7           2.4430    -0.1610     4.2730 h1         1 CTK       0.051200
     24 H8           3.7490    -1.0910     3.5260 h1         1 CTK       0.051200
     25 H9           2.1390    -2.0660     1.9230 h1         1 CTK       0.045700
     26 H10          0.8320    -1.1360     2.6700 h1         1 CTK       0.045700
     27 H11          1.7120    -2.9210     4.2610 hn         1 CTK       0.430800
     28 H12          2.6920     0.7930     2.0000 hn         1 CTK       0.463800
     29 H4           4.1300    -0.5800     5.6510 ha         1 CTK       0.147000
@<TRIPOS>BOND
     1    16    17 2
     2     6     5 ar
     3     6    10 ar
     4     5     4 ar
     5    10     3 ar
     6    14     7 1
     7     4     7 1
     8     4     2 ar
     9     7    15 1
    10     3     2 ar
    11     3    11 1
    12     9    12 1
    13     9     8 1
    14    17     1 1
    15    17    13 2
    16    17    12 1
    17    11     8 1
    18     1    18 1
    19     1    19 1
    20     1    20 1
    21     2    29 1
    22     5    21 1
    23     6    22 1
    24     8    23 1
    25     8    24 1
    26     9    25 1
    27     9    26 1
    28    11    27 1
    29    12    28 1
@<TRIPOS>SUBSTRUCTURE
     1 CTK         1 TEMP              0 ****  ****    0 ROOT
