@<TRIPOS>MOLECULE
CTK
   29    29     1     0     0
SMALL
bcc


@<TRIPOS>ATOM
      1 CAA          0.0000     0.0000     0.0000 c3         1 CTK       0.003700
      2 CAC          3.8790    -1.4310     6.2730 ca         1 CTK      -0.274300
      3 CAD          2.9570    -2.3770     5.8360 ca         1 CTK       0.480200
      4 CAE          4.4800    -1.6000     7.5210 ca         1 CTK      -0.031600
      5 CAG          4.1200    -2.7170     8.2840 ca         1 CTK      -0.235300
      6 CAH          3.1930    -3.6060     7.7790 ca         1 CTK       0.393200
      7 CAI          5.4710    -0.6230     8.0250 c          1 CTK       0.971200
      8 CAM          2.6890    -1.0770     3.7500 c3         1 CTK       0.161800
      9 CAN          1.8920    -1.1500     2.4460 c3         1 CTK       0.214800
     10 NAF          2.6480    -3.4180     6.5920 nb         1 CTK      -0.682000
     11 NAL          2.3530    -2.2270     4.5930 nu         1 CTK      -0.552900
     12 NAO          2.2280     0.0000     1.6030 n7         1 CTK      -0.586100
     13 OAB          2.3130    -1.2370    -0.4910 o          1 CTK      -0.588300
     14 OAJ          5.7720     0.3410     7.3500 o          1 CTK      -0.880300
     15 OAK          6.0410    -0.8030     9.2320 o          1 CTK      -0.880300
     16 OAQ          2.3130     1.2370    -0.4910 o          1 CTK      -0.588300
     17 SAP          1.8140     0.0000     0.0000 s6         1 CTK       0.952900
     18 H1          -0.3610     0.3280    -0.9670 h1         1 CTK       0.060033
     19 H2          -0.3610     0.6740     0.7670 h1         1 CTK       0.060033
     20 H3          -0.3610    -1.0020     0.2000 h1         1 CTK       0.060033
     21 H5           4.5630    -2.8820     9.2590 ha         1 CTK       0.136000
     22 H6           2.9100    -4.4720     8.3650 h4         1 CTK      -0.042900
     23 H7           2.4430    -0.1610     4.2730 h1         1 CTK       0.023200
     24 H8           3.7490    -1.0910     3.5260 h1         1 CTK       0.023200
     25 H9           2.1390    -2.0660     1.9230 h1         1 CTK       0.011200
     26 H10          0.8320    -1.1360     2.6700 h1         1 CTK       0.011200
     27 H11          1.7120    -2.9210     4.2610 hn         1 CTK       0.284800
     28 H12          2.6920     0.7930     2.0000 hn         1 CTK       0.360800
     29 H4           4.1300    -0.5800     5.6510 ha         1 CTK       0.135000
@<TRIPOS>BOND
     1     1    17 1   
     2     1    18 1   
     3     1    19 1   
     4     1    20 1   
     5     2     3 ar  
     6     2     4 ar  
     7     2    29 1   
     8     3    10 ar  
     9     3    11 1   
    10     4     5 ar  
    11     4     7 1   
    12     5     6 ar  
    13     5    21 1   
    14     6    10 ar  
    15     6    22 1   
    16     7    14 1   
    17     7    15 1   
    18     8     9 1   
    19     8    11 1   
    20     8    23 1   
    21     8    24 1   
    22     9    12 1   
    23     9    25 1   
    24     9    26 1   
    25    11    27 1   
    26    12    17 1   
    27    12    28 1   
    28    13    17 2   
    29    16    17 2   
@<TRIPOS>SUBSTRUCTURE
     1 CTK         1 TEMP              0 ****  ****    0 ROOT
