@<TRIPOS>MOLECULE
molecule
   26    27     1     0     0
SMALL
bcc


@<TRIPOS>ATOM
      1 C1           0.0000     0.0000     0.0000 c3         1 CTL       0.188400
      2 C2           1.5280     0.0000     0.0000 c3         1 CTL       0.094500
      3 C3           2.0110     0.0000     1.4550 c3         1 CTL      -0.097400
      4 C4           1.6910    -1.3610     2.0690 c3         1 CTL      -0.025100
      5 C5           0.2450    -1.7170     1.8420 ca         1 CTL      -0.072300
      6 C10         -0.3090    -2.7140     2.6350 ca         1 CTL      -0.115000
      7 C6          -0.5290    -1.0970     0.8860 ca         1 CTL      -0.126300
      8 C7          -1.8550    -1.4790     0.7210 ca         1 CTL      -0.102000
      9 C8          -2.4020    -2.4700     1.5100 ca         1 CTL      -0.110000
     10 C9          -1.6260    -3.0900     2.4720 ca         1 CTL      -0.090000
     11 O11         -0.4700     1.2610     0.4800 oh         1 CTL      -0.611800
     12 N12          2.0220     1.2010    -0.6860 nz         1 CTL      -0.805600
     13 H1          -0.3550    -0.1580    -1.0110 h1         1 CTL       0.053700
     14 H2           1.8910    -0.8880    -0.5030 hx         1 CTL       0.121700
     15 H31          3.0840     0.1500     1.4710 hc         1 CTL       0.076700
     16 H32          1.4800     0.7680     2.0040 hc         1 CTL       0.076700
     17 H41          2.3100    -2.1100     1.5920 hc         1 CTL       0.078200
     18 H42          1.8690    -1.3080     3.1370 hc         1 CTL       0.078200
     19 H10          0.2980    -3.2000     3.3900 ha         1 CTL       0.148000
     20 H7          -2.4630    -0.9940    -0.0320 ha         1 CTL       0.132000
     21 H8          -3.4370    -2.7610     1.3760 ha         1 CTL       0.153000
     22 H9          -2.0500    -3.8680     3.0940 ha         1 CTL       0.154000
     23 H11         -1.1650     1.5700    -0.0770 ho         1 CTL       0.431000
     24 H121         3.0090     1.1210    -0.8290 hn         1 CTL       0.455800
     25 H122         1.5620     1.2930    -1.5700 hn         1 CTL       0.455800
     26 H123         1.8310     2.0080    -0.1250 hn         1 CTL       0.455800
@<TRIPOS>BOND
     1     1     2 1
     2     1     7 1
     3     1    11 1
     4     1    13 1
     5     2     3 1
     6     2    12 1
     7     2    14 1
     8     3     4 1
     9     3    15 1
    10     3    16 1
    11     4     5 1
    12     4    17 1
    13     4    18 1
    14     5     6 ar
    15     5     7 ar
    16     6    10 ar
    17     6    19 1
    18     7     8 ar
    19     8     9 ar
    20     8    20 1
    21     9    10 ar
    22     9    21 1
    23    10    22 1
    24    11    23 1
    25    12    24 1
    26    12    25 1
    27    26    12 1
@<TRIPOS>SUBSTRUCTURE
     1 CTL         1 TEMP              0 ****  ****    0 ROOT
