@<TRIPOS>MOLECULE
CTM
   50    51     1     0     0
SMALL
bcc


@<TRIPOS>ATOM
      1 N1          1.3390    1.4410   -2.7970 n2        1 CTM     -0.068000
      2 C2          2.0470    0.9260   -1.7510 c2        1 CTM     -0.369000
      3 S3          1.1060    0.8020   -0.3030 ss        1 CTM      0.632000
      4 C4          0.0650    1.7030   -2.3990 c2        1 CTM     -0.151000
      5 C5         -0.2160    1.4110   -1.0520 c2        1 CTM     -0.451000
      6 C6         -8.5910   -3.6230    5.5380 c2        1 CTM      0.339000
      7 C7         -6.2390   -0.1470    3.8170 c2        1 CTM      0.062000
      8 C8         -7.3640   -0.4910    4.7140 c3        1 CTM     -0.238000
      9 C9          3.3950    0.4900   -1.8140 c2        1 CTM      0.039000
     10 C10        -5.4440   -1.2450    3.2710 c2        1 CTM     -0.158000
     11 C11        -9.5620   -4.4830    6.3280 cx        1 CTM     -0.080000
     12 C12        -4.2500   -0.9300    2.4230 c3        1 CTM     -0.059000
     13 C14        -5.9630    1.1470    3.5060 c2        1 CTM     -0.239000
     14 C15         4.0910    0.0610   -0.5960 c3        1 CTM     -0.164500
     15 C16         4.2120    0.6590   -3.0460 c3        1 CTM     -0.164500
     16 C17        -2.9680    1.7280    0.4260 c1        1 CTM     -0.098000
     17 C18        -4.1010    0.5130    2.1220 c2        1 CTM     -0.142000
     18 O19        -2.9860    0.7770    1.2790 os        1 CTM     -0.035000
     19 C21         5.9430    1.4930   -1.5200 c2        1 CTM     -0.227000
     20 C22        -4.8800    1.4910    2.6280 c2        1 CTM     -0.095000
     21 C23         5.2680    0.9290   -0.5040 c1        1 CTM     -0.089000
     22 C24         5.5660    1.1990   -2.8610 c1        1 CTM     -0.089000
     23 CL25        7.3330    2.4370   -1.2600 cl        1 CTM     -0.003000
     24 O26       -10.2530   -5.5510    5.6530 os        1 CTM     -0.278000
     25 C28       -11.0440   -4.4620    6.1570 cx        1 CTM     -0.052000
     26 C29       -11.7350   -3.6170    5.1420 c3        1 CTM     -0.213000
     27 H5         -1.2050    1.5710   -0.5680 h4        1 CTM      0.260000
     28 H8         -7.0040   -1.0980    5.5910 hc        1 CTM      0.121333
     29 H8A        -8.1070   -1.1510    4.1850 hc        1 CTM      0.121333
     30 H11        -9.1500   -4.7870    7.3140 h1        1 CTM      0.105000
     31 H12        -3.3170   -1.2830    2.9470 hc        1 CTM      0.090000
     32 H14        -7.8830    0.4230    5.0870 hc        1 CTM      0.121333
     33 H15         3.4490    0.1120    0.3260 hc        1 CTM      0.158000
     34 H16         4.3210   -0.3490   -3.5480 hc        1 CTM      0.158000
     35 H17        -3.8460    2.3990    0.3150 ha        1 CTM      0.038000
     36 H17A       -0.6520    2.1160   -3.1190 h4        1 CTM      0.189000
     37 H22        -4.7150    2.5530    2.3930 ha        1 CTM      0.119000
     38 H23         4.4800   -0.9970   -0.6720 hc        1 CTM      0.158000
     39 H24         3.7040    1.3340   -3.7960 hc        1 CTM      0.158000
     40 H27        -6.6180   -2.8450    4.1370 ha        1 CTM      0.157000
     41 H27A       -5.1530   -3.3490    3.0880 ha        1 CTM      0.157000
     42 H27B       -4.3130   -1.5000    1.4550 hc        1 CTM      0.090000
     43 H28        -6.5630    1.9710    3.9170 ha        1 CTM      0.128000
     44 H28A      -11.6830   -4.7530    7.0180 h1        1 CTM      0.083000
     45 H29       -12.6060   -4.1670    4.7110 hc        1 CTM      0.086667
     46 H29A      -12.1020   -2.6790    5.6230 hc        1 CTM      0.086667
     47 H29B      -11.0240   -3.3510    4.3160 hc        1 CTM      0.086667
     48 O13        -8.8350   -3.2800    4.3460 o         1 CTM     -0.574500
     49 C27        -5.7540   -2.5310    3.5110 c2        1 CTM     -0.133000
     50 O20        -7.5370   -3.2630    6.1430 o         1 CTM     -0.574500
@<TRIPOS>BOND
     1    1    2 1   
     2    1    4 1   
     3    2    3 1   
     4    2    9 1   
     5    3    5 1   
     6    4    5 1   
     7    4   36 1   
     8    5   27 1   
     9    6   11 1   
    10    6   48 1   
    11    6   50 1   
    12    7    8 1   
    13    7   10 1   
    14    7   13 1   
    15    8   28 1   
    16    8   29 1   
    17    8   32 1   
    18    9   14 1   
    19    9   15 1   
    20   10   12 1   
    21   10   49 1   
    22   11   24 1   
    23   11   25 1   
    24   11   30 1   
    25   12   17 1   
    26   12   31 1   
    27   12   42 1   
    28   13   20 1   
    29   13   43 1   
    30   14   21 1   
    31   14   33 1   
    32   14   38 1   
    33   15   22 1   
    34   15   34 1   
    35   15   39 1   
    36   16   18 1   
    37   16   35 1   
    38   17   18 1   
    39   17   20 1   
    40   19   21 1   
    41   19   22 1   
    42   19   23 1   
    43   20   37 1   
    44   24   25 1   
    45   25   26 1   
    46   25   44 1   
    47   26   45 1   
    48   26   46 1   
    49   26   47 1   
    50   40   49 1   
    51   41   49 1   
@<TRIPOS>SUBSTRUCTURE
     1 CTM         1 TEMP              0 ****  ****    0 ROOT
