@<TRIPOS>MOLECULE
molecule
   50    52     1     0     0
SMALL
bcc


@<TRIPOS>ATOM
      1 N1           0.0000     0.0000     0.0000 nc         1 CTM      -0.672000
      2 C2           1.3010     0.0000     0.0000 cd         1 CTM       0.521900
      3 S3           1.8770     0.0000     1.6650 ss         1 CTM      -0.265300
      4 C4          -0.5970    -0.0000     1.1700 cc         1 CTM       0.365600
      5 C5           0.2090     0.0000     2.2360 cd         1 CTM      -0.131400
      6 C6          -9.8390    -1.4050     4.6960 c          1 CTM       0.872600
      7 C7          -6.4820    -0.0000     3.5830 ca         1 CTM      -0.085300
      8 C8          -7.9530     0.0000     3.9110 c3         1 CTM      -0.021100
      9 C9           2.1600    -0.0000    -1.2040 ca         1 CTM      -0.114500
     10 C10         -5.5480     0.0010     4.6020 ca         1 CTM      -0.050300
     11 C11         -8.4010    -1.4240     4.2430 c3         1 CTM       0.041100
     12 C12         -4.1990     0.0020     4.3040 ca         1 CTM      -0.163000
     13 C14         -6.0690    -0.0060     2.2630 ca         1 CTM      -0.075000
     14 C15          3.5500     0.0000    -1.0740 ca         1 CTM      -0.093500
     15 C16          1.5840    -0.0070    -2.4750 ca         1 CTM      -0.093500
     16 C17         -2.0990    -0.0000     1.3020 c3         1 CTM       0.118100
     17 C18         -3.7820     0.0010     2.9810 ca         1 CTM       0.112100
     18 O19         -2.4550     0.0000     2.6860 os         1 CTM      -0.348900
     19 C21          3.7680    -0.0030    -3.4590 ca         1 CTM       0.034400
     20 C22         -4.7210    -0.0060     1.9600 ca         1 CTM      -0.230000
     21 C23          4.3450    -0.0010    -2.2010 ca         1 CTM      -0.126000
     22 C24          2.3890    -0.0080    -3.5940 ca         1 CTM      -0.126000
     23 Cl25         4.7750    -0.0030    -4.8730 cl         1 CTM      -0.114400
     24 O26         -8.2780    -2.2460     3.0810 os         1 CTM      -0.422600
     25 C28         -8.0040    -3.6190     3.3670 c3         1 CTM       0.148400
     26 C29         -7.8950    -4.4000     2.0550 c3         1 CTM      -0.091100
     27 H5          -0.1080     0.0000     3.2720 h4         1 CTM       0.203000
     28 H8          -8.1330     0.6440     4.7640 hc         1 CTM       0.066200
     29 H8A         -8.5130     0.3650     3.0590 hc         1 CTM       0.066200
     30 H11         -7.7780    -1.8220     5.0350 h1         1 CTM       0.025700
     31 H12         -3.4670     0.0020     5.1030 ha         1 CTM       0.128000
     32 H14         -6.8030    -0.0110     1.4670 ha         1 CTM       0.141000
     33 H15          4.0030     0.0010    -0.0900 ha         1 CTM       0.153000
     34 H16          0.5060    -0.0110    -2.5820 ha         1 CTM       0.153000
     35 H17         -2.5040     0.8840     0.8240 h1         1 CTM       0.057200
     36 H17A        -2.5030    -0.8850     0.8250 h1         1 CTM       0.057200
     37 H22         -4.3980    -0.0080     0.9260 ha         1 CTM       0.121000
     38 H23          5.4240     0.0010    -2.1010 ha         1 CTM       0.145500
     39 H24          1.9430    -0.0110    -4.5820 ha         1 CTM       0.145500
     40 H27         -5.1860     0.3280     6.6740 hc         1 CTM       0.049033
     41 H27A        -6.8390     0.6810     6.1520 hc         1 CTM       0.049033
     42 H27B        -6.3050    -0.9970     6.3230 hc         1 CTM       0.049033
     43 H28         -7.0700    -3.6950     3.9110 h1         1 CTM       0.018700
     44 H28A        -8.8060    -4.0310     3.9670 h1         1 CTM       0.018700
     45 H29         -6.9340    -4.2010     1.5950 hc         1 CTM       0.030033
     46 H29A        -7.9840    -5.4610     2.2580 hc         1 CTM       0.030033
     47 H29B        -8.6880    -4.0920     1.3840 hc         1 CTM       0.030033
     48 O13        -10.6870    -1.9570     4.0360 o          1 CTM      -0.838800
     49 C27         -6.0020     0.0030     6.0390 c3         1 CTM      -0.048800
     50 O20        -10.1760    -0.7760     5.8320 o          1 CTM      -0.838800
@<TRIPOS>BOND
     1     1     2 2
     2     1     4 1
     3     2     3 1
     4     2     9 1
     5     3     5 1
     6     4     5 2
     7     4    16 1
     8     6    11 1
     9     6    48 1
    10     6    50 1
    11     7     8 1
    12     7    10 ar
    13     7    13 ar
    14     8    11 1
    15     9    14 ar
    16     9    15 ar
    17    10    12 ar
    18    10    49 1
    19    11    24 1
    20    12    17 ar
    21    13    20 ar
    22    14    21 ar
    23    15    22 ar
    24    16    18 1
    25    17    18 1
    26    17    20 ar
    27    19    21 ar
    28    19    22 ar
    29    19    23 1
    30    24    25 1
    31    25    26 1
    32     5    27 1
    33     8    28 1
    34     8    29 1
    35    11    30 1
    36    12    31 1
    37    13    32 1
    38    14    33 1
    39    15    34 1
    40    16    35 1
    41    16    36 1
    42    20    37 1
    43    21    38 1
    44    22    39 1
    45    49    40 1
    46    49    41 1
    47    49    42 1
    48    25    43 1
    49    25    44 1
    50    26    45 1
    51    26    46 1
    52    26    47 1
@<TRIPOS>SUBSTRUCTURE
     1 CTM         1 TEMP              0 ****  ****    0 ROOT
