@<TRIPOS>MOLECULE
CTN
   30    31     1     0     0
SMALL
bcc


@<TRIPOS>ATOM
      1 O5'         0.1890   -0.9220    0.3540 oh        1 CTN     -0.596800
      2 C5'         1.6000   -0.8700    0.3290 c3        1 CTN      0.112400
      3 C4'         2.1340    0.0010    1.4650 c3        1 CTN      0.070100
      4 O4'         1.7360   -0.5670    2.7220 os        1 CTN     -0.432600
      5 C1'         2.8630   -1.0490    3.4690 c3        1 CTN      0.302500
      6 N1          2.8020   -2.4970    3.6220 n         1 CTN     -0.395000
      7 C6          2.1890   -3.0100    4.7430 cc        1 CTN      0.073600
      8 C5          2.0330   -4.3550    4.9400 cd        1 CTN     -0.422600
      9 C4          2.5130   -5.2610    3.8950 cd        1 CTN      0.760500
     10 N3          3.0690   -4.8000    2.7600 nc        1 CTN     -0.725100
     11 C2          3.2160   -3.4200    2.5850 c         1 CTN      0.841900
     12 O2          3.7170   -2.9430    1.5440 o         1 CTN     -0.640500
     13 N4          2.4110   -6.6170    4.1060 nh        1 CTN     -0.919800
     14 C2'         4.1480   -0.5120    2.7760 c3        1 CTN      0.089100
     15 O2'         4.6670    0.4800    3.6470 oh        1 CTN     -0.607800
     16 C3'         3.6670    0.1140    1.4470 c3        1 CTN      0.097100
     17 O3'         4.1110    1.4470    1.3270 oh        1 CTN     -0.589800
     18 H5'        -0.0630   -1.2770    1.2160 ho        1 CTN      0.408000
     19 H5'1        2.0360   -1.9040    0.3950 h1        1 CTN      0.069700
     20 H5'2        1.8570   -0.4050   -0.6600 h1        1 CTN      0.069700
     21 H4'         1.6430    1.0140    1.4350 h1        1 CTN      0.083700
     22 H1'         2.7570   -0.5800    4.4950 h2        1 CTN      0.098700
     23 H6          1.8300   -2.2810    5.4960 h4        1 CTN      0.160000
     24 H5          1.5650   -4.7420    5.8510 ha        1 CTN      0.156000
     25 HN41        2.6490   -7.2540    3.3840 hn        1 CTN      0.441300
     26 HN42        1.8570   -6.9340    4.8590 hn        1 CTN      0.441300
     27 H2'         4.9170   -1.3080    2.5950 h1        1 CTN      0.097700
     28 H1          5.4370    0.8590    3.2010 ho        1 CTN      0.425000
     29 H3'         4.1110   -0.4260    0.5670 h1        1 CTN      0.118700
     30 H2          3.7250    1.9520    2.0560 ho        1 CTN      0.412000
@<TRIPOS>BOND
     1    1    2 1
     2    1   18 1
     3    2    3 1
     4    2   19 1
     5    2   20 1
     6    3    4 1
     7    3   16 1
     8    3   21 1
     9    4    5 1
    10    5    6 1
    11    5   14 1
    12    5   22 1
    13    6    7 1
    14    6   11 1
    15    7    8 2
    16    7   23 1
    17    8    9 1
    18    8   24 1
    19    9   10 2
    20    9   13 1
    21   10   11 1
    22   11   12 2
    23   13   25 1
    24   13   26 1
    25   14   15 1
    26   14   16 1
    27   14   27 1
    28   15   28 1
    29   16   17 1
    30   16   29 1
    31   17   30 1
@<TRIPOS>SUBSTRUCTURE
     1 CTN         1 TEMP              0 ****  ****    0 ROOT
