@<TRIPOS>MOLECULE
CTP
   42    43     1     0     0
SMALL
bcc


@<TRIPOS>ATOM
      1 N1          0.0000    0.0000    0.0000 n         1 CTP     -0.034000
      2 C2          1.3450    0.0000    0.0000 c         1 CTP      0.760900
      3 N3          2.0330    0.0000    1.1420 nc        1 CTP     -0.893100
      4 C4          1.4050   -0.0010    2.3110 cd        1 CTP     -0.194500
      5 C5         -0.0040   -0.0070    2.3450 cd        1 CTP     -0.207600
      6 C6         -0.6890   -0.0010    1.1760 cc        1 CTP     -0.274400
      7 O2          1.9440    0.0000   -1.0620 o         1 CTP     -0.824500
      8 N4          2.1260   -0.0020    3.4820 nz        1 CTP      0.357400
      9 C1'        -0.7290   -0.0000   -1.2700 c3        1 CTP      0.237500
     10 C2'        -0.3400    1.2340   -2.1130 c3        1 CTP      0.092100
     11 O2'        -1.3120    2.2720   -1.9730 oh        1 CTP     -0.587800
     12 C3'        -0.3190    0.7040   -3.5660 c3        1 CTP      0.133100
     13 C4'        -0.7010   -0.7860   -3.4270 c3        1 CTP      0.147100
     14 O4'        -0.3380   -1.1360   -2.0730 os        1 CTP     -0.341600
     15 O3'        -1.2810    1.3950   -4.3660 oh        1 CTP     -0.584800
     16 C5'         0.0870   -1.6370   -4.4250 c3        1 CTP      0.247400
     17 O5'        -0.2290   -3.0150   -4.2290 os        1 CTP     -0.461200
     18 PA          0.6300   -3.8480   -5.3060 p5        1 CTP      0.947800
     19 O1A         0.2310   -3.3740   -6.7920 o         1 CTP     -0.644000
     20 O2A         2.0730   -3.6020   -5.0820 o         1 CTP     -0.644000
     21 O3A         0.3220   -5.4180   -5.1440 os        1 CTP     -0.481800
     22 PB          1.2110   -6.1850   -6.2450 p5        1 CTP      1.046800
     23 O1B         0.8010   -5.6730   -7.7150 o         1 CTP     -0.376000
     24 O2B         2.6430   -5.9030   -6.0060 o         1 CTP     -0.376000
     25 O3B         0.9500   -7.7700   -6.1380 os        1 CTP     -0.472800
     26 PG          1.8660   -8.4700   -7.2620 p5        1 CTP      0.835900
     27 O1G         1.6530  -10.0650   -7.2110 o         1 CTP     -0.521500
     28 O2G         1.4440   -7.9200   -8.7150 o         1 CTP     -0.521500
     29 O3G         3.2880   -8.1530   -7.0070 o         1 CTP     -0.521500
     30 H5         -0.5220   -0.2060    3.2750 ha        1 CTP      0.042000
     31 H6         -1.7600    0.1620    1.1760 h4        1 CTP      0.081000
     32 HN41        1.9730   -0.8640    3.9670 hn        1 CTP      0.062133
     33 HN42        3.1000    0.0960    3.2740 hn        1 CTP      0.062133
     34 H1'        -1.7980   -0.0140   -1.0970 h2        1 CTP     -0.000300
     35 H2'         0.6440    1.5890   -1.8280 h1        1 CTP      0.067700
     36 HO2'       -0.8750    3.0940   -1.8250 ho        1 CTP      0.359000
     37 H3'         0.6740    0.8000   -3.9880 h1        1 CTP      0.024700
     38 H4'        -1.7670   -0.9140   -3.5740 h1        1 CTP      0.004700
     39 HO3'       -0.8370    1.8780   -5.0430 ho        1 CTP      0.361000
     40 H5'1       -0.1770   -1.3460   -5.4350 h1        1 CTP      0.012700
     41 H5'2        1.1480   -1.4840   -4.2700 h1        1 CTP      0.012700
     42 H43         1.8290    0.7620    4.0570 hn        1 CTP      0.062133
@<TRIPOS>BOND
     1    1    2 1   
     2    1    6 1   
     3    1    9 1   
     4    2    3 1   
     5    2    7 2   
     6    3    4 2   
     7    4    5 1   
     8    4    8 1   
     9    5    6 2   
    10    5   30 1   
    11    6   31 1   
    12    8   32 1   
    13    8   33 1   
    14    8   42 1   
    15    9   10 1   
    16    9   14 1   
    17    9   34 1   
    18   10   11 1   
    19   10   12 1   
    20   10   35 1   
    21   11   36 1   
    22   12   13 1   
    23   12   15 1   
    24   12   37 1   
    25   13   14 1   
    26   13   16 1   
    27   13   38 1   
    28   15   39 1   
    29   16   17 1   
    30   16   40 1   
    31   16   41 1   
    32   17   18 1   
    33   18   19 1   
    34   18   20 1   
    35   18   21 1   
    36   21   22 1   
    37   22   23 1   
    38   22   24 1   
    39   22   25 1   
    40   25   26 1   
    41   26   27 1   
    42   26   28 1   
    43   26   29 1   
@<TRIPOS>SUBSTRUCTURE
     1 CTP         1 TEMP              0 ****  ****    0 ROOT
