@<TRIPOS>MOLECULE
molecule
   28    29     1     0     0
SMALL
bcc


@<TRIPOS>ATOM
      1 C1           0.0000     0.0000     0.0000 c3         1 CTS       0.117800
      2 C2           1.5360     0.0000     0.0000 c3         1 CTS       0.137100
      3 C3           2.0820     0.0000     1.4270 c3         1 CTS       0.119100
      4 C4           1.4290     1.1220     2.2520 c3         1 CTS       0.163100
      5 C5          -0.0730     0.9510     2.1300 c3         1 CTS       0.136500
      6 C6          -0.9090     1.9760     2.8990 c3         1 CTS       0.159100
      7 O2           2.0060    -1.1640    -0.6820 oh         1 CTS      -0.607800
      8 O3           3.4960     0.2060     1.3920 oh         1 CTS      -0.606800
      9 O4           1.8210     1.0120     3.6210 oh         1 CTS      -0.607800
     10 O6          -0.1950     3.2050     3.0340 oh         1 CTS      -0.592800
     11 N           -0.4450     1.1930     0.7070 n3         1 CTS      -0.666600
     12 C7          -2.1690     2.1700     2.0140 c3         1 CTS      -0.117400
     13 C8          -1.9130     1.2900     0.7600 c3         1 CTS       0.140800
     14 H11         -0.3660     0.0210    -1.0200 h1         1 CTS       0.047200
     15 H12         -0.3660    -0.8840     0.5080 h1         1 CTS       0.047200
     16 H2           1.8900     0.8860    -0.5140 h1         1 CTS       0.060700
     17 H3           1.8670    -0.9550     1.8910 h1         1 CTS       0.053700
     18 H4           1.7210     2.0870     1.8560 h1         1 CTS       0.080700
     19 H5          -0.3570    -0.0530     2.4210 h1         1 CTS       0.051700
     20 H6          -1.1880     1.5830     3.8690 h1         1 CTS       0.043700
     21 HO2          2.3150    -0.9230    -1.5400 ho         1 CTS       0.408000
     22 HO3          3.9330    -0.5570     1.7310 ho         1 CTS       0.410000
     23 HO4          2.5360     1.6020     3.7910 ho         1 CTS       0.414000
     24 HO6         -0.5180     3.6750     3.7840 ho         1 CTS       0.401000
     25 H71         -2.2700     3.2100     1.7290 hc         1 CTS       0.057200
     26 H72         -3.0530     1.8290     2.5390 hc         1 CTS       0.057200
     27 H81         -2.2950     1.7770    -0.1300 h1         1 CTS       0.045700
     28 H82         -2.3560     0.3100     0.8860 h1         1 CTS       0.045700
@<TRIPOS>BOND
     1     1     2 1
     2     1    11 1
     3     1    14 1
     4     1    15 1
     5     2     3 1
     6     2     7 1
     7     2    16 1
     8     3     4 1
     9     3     8 1
    10     3    17 1
    11     4     5 1
    12     4     9 1
    13     4    18 1
    14     5     6 1
    15     5    11 1
    16     5    19 1
    17     6    10 1
    18     6    12 1
    19     6    20 1
    20     7    21 1
    21     8    22 1
    22     9    23 1
    23    10    24 1
    24    11    13 1
    25    12    13 1
    26    12    25 1
    27    12    26 1
    28    13    27 1
    29    13    28 1
@<TRIPOS>SUBSTRUCTURE
     1 CTS         1 TEMP              0 ****  ****    0 ROOT
