@<TRIPOS>MOLECULE
CTV
   26    25     1     0     0
SMALL
bcc


@<TRIPOS>ATOM
      1 C1           0.0000     0.0000     0.0000 c3         1 CTV      -0.005900
      2 N1          -0.5080    -3.6850     2.6290 n1         1 CTV      -0.397800
      3 C2           2.2610    -0.0010    -1.3040 c3         1 CTV      -0.005900
      4 C3           1.5070     0.0000     0.0000 c2         1 CTV      -0.220400
      5 C4           2.1610     0.0000     1.1350 c2         1 CTV      -0.165200
      6 C5           1.4130    -0.1240     2.4370 c3         1 CTV      -0.130200
      7 C6           1.9790    -1.2960     3.2410 c3         1 CTV       0.101800
      8 C7           1.2300    -1.4190     4.5430 c2         1 CTV      -0.010400
      9 C8           0.2030    -2.2590     4.6430 ce         1 CTV      -0.024700
     10 C9           1.6440    -0.5900     5.7320 c3         1 CTV      -0.007900
     11 C10         -0.1910    -3.0460     3.5130 cg         1 CTV       0.144500
     12 H1           0.0200    -1.0490     0.2690 hc         1 CTV       0.038533
     13 H1A         -0.2550    -0.0350    -1.0520 hc         1 CTV       0.038533
     14 H2           1.8630    -0.9230    -1.7100 hc         1 CTV       0.038533
     15 H2A          1.7650     0.7000    -1.9640 hc         1 CTV       0.038533
     16 H2B          2.9950     0.5090    -0.6930 hc         1 CTV       0.038533
     17 H4           3.1480     0.4130     0.9670 ha         1 CTV       0.112000
     18 H5           0.5460     0.5260     2.4500 hc         1 CTV       0.066700
     19 H5A          0.9810    -1.1000     2.2510 hc         1 CTV       0.066700
     20 H6           1.6970    -2.2280     2.7660 hc         1 CTV       0.028700
     21 H6A          3.0120    -1.0800     3.4850 hc         1 CTV       0.028700
     22 H8          -0.4330    -2.8140     5.3210 ha         1 CTV       0.143000
     23 H9           2.1990    -0.9830     6.5750 hc         1 CTV       0.015033
     24 H9A          2.5050     0.0660     5.7600 hc         1 CTV       0.015033
     25 H9B          1.0910     0.2880     6.0420 hc         1 CTV       0.015033
     26 H15         -0.5040     0.9340     0.2160 hc         1 CTV       0.038533
@<TRIPOS>BOND
     1     1     4 1   
     2     1    12 1   
     3     1    13 1   
     4     1    26 1   
     5     2    11 3   
     6     3     4 1   
     7     3    14 1   
     8     3    15 1   
     9     3    16 1   
    10     4     5 2   
    11     5     6 1   
    12     5    17 1   
    13     6     7 1   
    14     6    18 1   
    15     6    19 1   
    16     7     8 1   
    17     7    20 1   
    18     7    21 1   
    19     8     9 2   
    20     8    10 1   
    21     9    11 1   
    22     9    22 1   
    23    10    23 1   
    24    10    24 1   
    25    10    25 1   
@<TRIPOS>SUBSTRUCTURE
     1 CTV         1 TEMP              0 ****  ****    0 ROOT
