@<TRIPOS>MOLECULE
molecule
   26    25     1     0     0
SMALL
bcc


@<TRIPOS>ATOM
      1 C1           0.0000     0.0000     0.0000 c3         1 CTV      -0.040400
      2 N1          -0.5210    -3.6610     2.6170 n1         1 CTV      -0.333800
      3 C2           2.2610    -0.0010    -1.3040 c3         1 CTV      -0.040400
      4 C3           1.5070     0.0000     0.0000 c2         1 CTV      -0.244400
      5 C4           2.1610     0.0000     1.1350 c2         1 CTV      -0.295200
      6 C5           1.4130    -0.1240     2.4370 c3         1 CTV      -0.056200
      7 C6           1.9790    -1.2960     3.2410 c3         1 CTV      -0.014200
      8 C7           1.2300    -1.4190     4.5430 c2         1 CTV      -0.203400
      9 C8           0.2030    -2.2590     4.6430 ce         1 CTV      -0.179700
     10 C9           1.6440    -0.5900     5.7320 c3         1 CTV      -0.014900
     11 C10         -0.1910    -3.0460     3.5130 cg         1 CTV       0.252500
     12 H1          -0.3610     0.1450    -1.0110 hc         1 CTV       0.040200
     13 H1A         -0.3610     0.8030     0.6310 hc         1 CTV       0.040200
     14 H2           1.5710    -0.1820    -2.1200 hc         1 CTV       0.040200
     15 H2A          3.0120    -0.7820    -1.2860 hc         1 CTV       0.040200
     16 H2B          2.7420     0.9590    -1.4450 hc         1 CTV       0.040200
     17 H4           1.6190     0.0000     2.0730 ha         1 CTV       0.237000
     18 H5           0.6870    -0.9240     2.3620 hc         1 CTV       0.062200
     19 H5A          0.9020     0.8080     2.6500 hc         1 CTV       0.062200
     20 H6           3.0610    -1.2720     3.2010 hc         1 CTV       0.066700
     21 H6A          1.6220    -2.2280     2.8200 hc         1 CTV       0.066700
     22 H8          -0.0950    -2.8540     3.7880 ha         1 CTV       0.265000
     23 H9           2.0170    -1.2410     6.5140 hc         1 CTV       0.056033
     24 H9A          0.7890    -0.0360     6.1010 hc         1 CTV       0.056033
     25 H9B          2.4230     0.1020     5.4360 hc         1 CTV       0.056033
     26 H15         -0.3610    -0.9480     0.3800 hc         1 CTV       0.040200
@<TRIPOS>BOND
     1     1     4 1
     2     1    12 1
     3     1    13 1
     4     2    11 3
     5     3     4 1
     6     3    14 1
     7     3    15 1
     8     3    16 1
     9     4     5 2
    10     5     6 1
    11     5    17 1
    12     6     7 1
    13     6    18 1
    14     6    19 1
    15     7     8 1
    16     7    20 1
    17     7    21 1
    18     8     9 2
    19     8    10 1
    20     9    11 1
    21     9    22 1
    22    10    23 1
    23    10    24 1
    24    10    25 1
    25     1    26 1
@<TRIPOS>SUBSTRUCTURE
     1 CTV         1 TEMP              0 ****  ****    0 ROOT
