@<TRIPOS>MOLECULE
CTX
   57    59     1     0     0
SMALL
bcc


@<TRIPOS>ATOM
      1 CA           0.0000     0.0000     0.0000 c3         1 CTX      -0.011100
      2 CB           1.5290     0.0000     0.0000 c3         1 CTX       0.021800
      3 CA1          2.9730    -0.1050     8.1940 c3         1 CTX       0.171400
      4 CB1          3.4430    -0.1640     9.6490 c3         1 CTX       0.125800
      5 C1           3.1210     1.0160     6.2630 ca         1 CTX       0.136100
      6 C2           3.5420     2.0020     5.3790 ca         1 CTX      -0.185000
      7 C3           3.0840     2.0060     4.0790 ca         1 CTX      -0.047500
      8 C5           1.7730     0.0310     4.5430 ca         1 CTX      -0.047500
      9 C6           2.2390     0.0310     5.8400 ca         1 CTX      -0.185000
     10 C4           2.1970     1.0170     3.6510 ca         1 CTX      -0.084800
     11 C7           1.7050     1.0170     2.2560 ce         1 CTX      -0.006400
     12 C8           0.8540     2.1270     1.7720 ca         1 CTX      -0.032800
     13 C9          -0.4140     2.3260     2.3170 ca         1 CTX      -0.095000
     14 C10         -1.2020     3.3640     1.8610 ca         1 CTX      -0.101000
     15 C11         -0.7370     4.2040     0.8660 ca         1 CTX      -0.104000
     16 C12          0.5200     4.0110     0.3200 ca         1 CTX      -0.101000
     17 C13          1.3200     2.9810     0.7710 ca         1 CTX      -0.095000
     18 C14          3.1580    -3.4290     2.4400 ca         1 CTX      -0.102000
     19 C15          4.4690    -3.1820     2.8080 ca         1 CTX      -0.104000
     20 C16          4.9890    -1.9020     2.7250 ca         1 CTX      -0.102000
     21 C17          4.2050    -0.8630     2.2710 ca         1 CTX      -0.091500
     22 C18          2.8770    -1.1030     1.9020 ca         1 CTX      -0.041800
     23 C19          2.3580    -2.4000     1.9890 ca         1 CTX      -0.091500
     24 C20          2.0310     0.0000     1.4210 cf         1 CTX      -0.058400
     25 NI           2.9500     1.0170    10.3710 n3         1 CTX      -0.511600
     26 C21          1.5250     0.7820    10.6390 c3         1 CTX       0.165100
     27 C22          3.6290     1.0280    11.6750 c3         1 CTX       0.165100
     28 HA1         -0.3610    -0.1270     1.0130 hc         1 CTX       0.008700
     29 HA2         -0.3610    -0.8140    -0.6160 hc         1 CTX       0.008700
     30 HA3         -0.3610     0.9410    -0.3970 hc         1 CTX       0.008700
     31 HB1          1.8910    -0.8850    -0.5110 hc         1 CTX       0.022700
     32 HB2          1.8910     0.8840    -0.5110 hc         1 CTX       0.022700
     33 HA11         3.2620    -1.0160     7.6840 h1         1 CTX       0.014200
     34 HA12         1.8950    -0.0020     8.1660 h1         1 CTX       0.014200
     35 HB11         4.5260    -0.1790     9.6780 h1         1 CTX       0.021200
     36 HB12         3.0570    -1.0610    10.1180 h1         1 CTX       0.021200
     37 H2           4.2300     2.7690     5.7130 ha         1 CTX       0.124000
     38 H3           3.4140     2.7740     3.3900 ha         1 CTX       0.108000
     39 H5           1.0850    -0.7380     4.2140 ha         1 CTX       0.108000
     40 H6           1.9100    -0.7350     6.5330 ha         1 CTX       0.124000
     41 H9          -0.7800     1.6690     3.0970 ha         1 CTX       0.110000
     42 H10         -2.1870     3.5200     2.2830 ha         1 CTX       0.102000
     43 H11         -1.3610     5.0150     0.5100 ha         1 CTX       0.101000
     44 H12          0.8790     4.6740    -0.4580 ha         1 CTX       0.102000
     45 H13          2.3040     2.8310     0.3430 ha         1 CTX       0.110000
     46 H14          2.7590    -4.4340     2.5070 ha         1 CTX       0.102000
     47 H15          5.0920    -3.9940     3.1630 ha         1 CTX       0.100000
     48 H16          6.0170    -1.7170     3.0130 ha         1 CTX       0.102000
     49 H17          4.6140     0.1380     2.2070 ha         1 CTX       0.109000
     50 H19          1.3320    -2.5950     1.7030 ha         1 CTX       0.109000
     51 H211         0.9390     1.1080     9.7880 h1         1 CTX       0.004033
     52 H212         1.3580    -0.2740    10.8090 h1         1 CTX       0.004033
     53 H213         1.2260     1.3410    11.5180 h1         1 CTX       0.004033
     54 H221         4.6970     1.1230    11.5250 h1         1 CTX       0.004033
     55 H222         3.4180     0.1030    12.1990 h1         1 CTX       0.004033
     56 H223         3.2700     1.8650    12.2610 h1         1 CTX       0.004033
     57 OL           3.5750     1.0160     7.5440 os         1 CTX      -0.261900
@<TRIPOS>BOND
     1     1     2 1   
     2     1    28 1   
     3     1    29 1   
     4     1    30 1   
     5     2    24 1   
     6     2    31 1   
     7     2    32 1   
     8     3     4 1   
     9     3    33 1   
    10     3    34 1   
    11     3    57 1   
    12     4    25 1   
    13     4    35 1   
    14     4    36 1   
    15     5     6 ar  
    16     5     9 ar  
    17     5    57 1   
    18     6     7 ar  
    19     6    37 1   
    20     7    10 ar  
    21     7    38 1   
    22     8     9 ar  
    23     8    10 ar  
    24     8    39 1   
    25     9    40 1   
    26    10    11 1   
    27    11    12 1   
    28    11    24 2   
    29    12    13 ar  
    30    12    17 ar  
    31    13    14 ar  
    32    13    41 1   
    33    14    15 ar  
    34    14    42 1   
    35    15    16 ar  
    36    15    43 1   
    37    16    17 ar  
    38    16    44 1   
    39    17    45 1   
    40    18    19 ar  
    41    18    23 ar  
    42    18    46 1   
    43    19    20 ar  
    44    19    47 1   
    45    20    21 ar  
    46    20    48 1   
    47    21    22 ar  
    48    21    49 1   
    49    22    23 ar  
    50    22    24 1   
    51    23    50 1   
    52    25    26 1   
    53    25    27 1   
    54    26    51 1   
    55    26    52 1   
    56    26    53 1   
    57    27    54 1   
    58    27    55 1   
    59    27    56 1   
@<TRIPOS>SUBSTRUCTURE
     1 CTX         1 TEMP              0 ****  ****    0 ROOT
