@<TRIPOS>MOLECULE
molecule
   54    58     1     0     0
SMALL
bcc


@<TRIPOS>ATOM
      1 N1           0.0000     0.0000     0.0000 n2         1 CTZ      -0.327200
      2 C2           1.4700     0.0000     0.0000 c3         1 CTZ       0.255000
      3 C3           1.8390     0.0000     1.4680 c          1 CTZ       0.530300
      4 N4           0.6600    -0.0040     2.1320 n          1 CTZ      -0.132200
      5 C5           0.3980    -0.0060     3.4800 cc         1 CTZ      -0.129600
      6 C6          -0.8810    -0.0070     3.9340 cd         1 CTZ       0.387800
      7 N7          -1.9280    -0.0060     3.0960 nd         1 CTZ      -0.618000
      8 C8          -1.7610    -0.0040     1.8030 cc         1 CTZ       0.445600
      9 C9          -0.3990    -0.0020     1.2490 cc         1 CTZ      -0.034600
     10 C10          2.0070    -1.2550    -0.6890 c3         1 CTZ      -0.000100
     11 C11          1.5850    -1.2540    -2.1360 ca         1 CTZ      -0.085300
     12 C12          2.3950    -0.6660    -3.0900 ca         1 CTZ      -0.089000
     13 C13          2.0110    -0.6640    -4.4180 ca         1 CTZ      -0.156500
     14 C14          0.8120    -1.2520    -4.7920 ca         1 CTZ       0.108100
     15 C15         -0.0010    -1.8360    -3.8320 ca         1 CTZ      -0.156500
     16 C16          0.3910    -1.8410    -2.5070 ca         1 CTZ      -0.089000
     17 O17          0.4330    -1.2510    -6.0970 oh         1 CTZ      -0.525100
     18 O18          2.9520    -0.0000     1.9480 o          1 CTZ      -0.538500
     19 C19         -1.1270    -0.0090     5.3970 ca         1 CTZ      -0.143500
     20 C20         -2.1590     0.7600     5.9330 ca         1 CTZ      -0.091500
     21 C21         -2.3850     0.7550     7.2930 ca         1 CTZ      -0.155000
     22 C22         -1.5870    -0.0130     8.1290 ca         1 CTZ       0.115100
     23 C23         -0.5600    -0.7820     7.5980 ca         1 CTZ      -0.155000
     24 C24         -0.3320    -0.7850     6.2380 ca         1 CTZ      -0.091500
     25 O25         -1.8130    -0.0160     9.4680 oh         1 CTZ      -0.522100
     26 C26         -2.9560    -0.0040     0.8830 c3         1 CTZ      -0.066400
     27 C27         -4.2200    -0.0060     1.7020 ca         1 CTZ      -0.074300
     28 C28         -4.8010     1.1910     2.0790 ca         1 CTZ      -0.112500
     29 C29         -5.9620     1.1890     2.8310 ca         1 CTZ      -0.127000
     30 C30         -6.5410    -0.0080     3.2040 ca         1 CTZ      -0.126000
     31 C31         -5.9610    -1.2040     2.8260 ca         1 CTZ      -0.127000
     32 C32         -4.8030    -1.2030     2.0710 ca         1 CTZ      -0.112500
     33 O33          1.9700     1.1750    -0.6420 oh         1 CTZ      -0.545800
     34 H5           1.2190    -0.0060     4.1870 h4         1 CTZ       0.182000
     35 H101         1.6080    -2.1350    -0.1980 hc         1 CTZ       0.067700
     36 H102         3.0880    -1.2660    -0.6280 hc         1 CTZ       0.067700
     37 H12          3.3310    -0.2070    -2.7960 ha         1 CTZ       0.135500
     38 H13          2.6460    -0.2050    -5.1650 ha         1 CTZ       0.139000
     39 H15         -0.9380    -2.2960    -4.1220 ha         1 CTZ       0.139000
     40 H16         -0.2440    -2.2960    -1.7560 ha         1 CTZ       0.135500
     41 H17         -0.0560    -0.4660    -6.2820 ho         1 CTZ       0.419000
     42 H20         -2.7820     1.3600     5.2810 ha         1 CTZ       0.142000
     43 H21         -3.1870     1.3530     7.7100 ha         1 CTZ       0.144500
     44 H23          0.0600    -1.3830     8.2520 ha         1 CTZ       0.144500
     45 H24          0.4690    -1.3840     5.8240 ha         1 CTZ       0.142000
     46 H25         -2.4210    -0.7050     9.6830 ho         1 CTZ       0.422000
     47 H261        -2.9300    -0.8880     0.2570 hc         1 CTZ       0.078200
     48 H262        -2.9310     0.8810     0.2590 hc         1 CTZ       0.078200
     49 H28         -4.3460     2.1290     1.7860 ha         1 CTZ       0.129000
     50 H29         -6.4170     2.1270     3.1270 ha         1 CTZ       0.129000
     51 H30         -7.4500    -0.0100     3.7940 ha         1 CTZ       0.128000
     52 H31         -6.4170    -2.1420     3.1160 ha         1 CTZ       0.129000
     53 H32         -4.3490    -2.1400     1.7740 ha         1 CTZ       0.129000
     54 H33          2.1570     1.8320     0.0070 ho         1 CTZ       0.411000
@<TRIPOS>BOND
     1     1     2 1
     2     1     9 2
     3     2     3 1
     4     2    10 1
     5     2    33 1
     6     3     4 1
     7     3    18 2
     8     4     5 1
     9     4     9 1
    10     5     6 2
    11     5    34 1
    12     6     7 1
    13     6    19 1
    14     7     8 2
    15     8     9 1
    16     8    26 1
    17    10    11 1
    18    10    35 1
    19    10    36 1
    20    11    12 ar
    21    11    16 ar
    22    12    13 ar
    23    12    37 1
    24    13    14 ar
    25    13    38 1
    26    14    15 ar
    27    14    17 1
    28    15    16 ar
    29    15    39 1
    30    16    40 1
    31    17    41 1
    32    19    20 ar
    33    19    24 ar
    34    20    21 ar
    35    20    42 1
    36    21    22 ar
    37    21    43 1
    38    22    23 ar
    39    22    25 1
    40    23    24 ar
    41    23    44 1
    42    24    45 1
    43    25    46 1
    44    26    27 1
    45    26    47 1
    46    26    48 1
    47    27    28 ar
    48    27    32 ar
    49    28    29 ar
    50    28    49 1
    51    29    30 ar
    52    29    50 1
    53    30    31 ar
    54    30    51 1
    55    31    32 ar
    56    31    52 1
    57    32    53 1
    58    33    54 1
@<TRIPOS>SUBSTRUCTURE
     1 CTZ         1 TEMP              0 ****  ****    0 ROOT
