@<TRIPOS>MOLECULE
CU4
   50    53     1     0     0
SMALL
bcc


@<TRIPOS>ATOM
      1 C01          0.0000     0.0000     0.0000 c3         1 CU4       0.028700
      2 C05          2.2540     0.0000     1.7060 ca         1 CU4      -0.145500
      3 C06          2.4200     1.2000     2.3740 ca         1 CU4      -0.010000
      4 C07          2.7590     1.2050     3.7120 ca         1 CU4      -0.096000
      5 C08          2.9350    -0.0000     4.3890 ca         1 CU4      -0.092500
      6 C09          2.7650    -1.2060     3.7110 ca         1 CU4      -0.096000
      7 C10          2.4260    -1.2000     2.3730 ca         1 CU4      -0.010000
      8 C11          3.2990    -0.0010     5.8270 cc         1 CU4       0.504800
      9 C14          3.4420    -0.5800     8.0260 cd         1 CU4      -0.243300
     10 C15          2.8610    -0.9690     6.8380 cc         1 CU4      -0.372900
     11 C16          1.9740    -2.1250     6.6260 c          1 CU4       0.629700
     12 C19          0.7420    -3.9720     7.4800 ca         1 CU4      -0.066400
     13 C20         -0.1300    -4.3160     8.5050 ca         1 CU4      -0.149000
     14 C21         -1.0380    -5.3400     8.3250 ca         1 CU4      -0.055000
     15 C22         -1.0830    -6.0240     7.1230 ca         1 CU4      -0.146000
     16 C23         -0.2160    -5.6840     6.0980 ca         1 CU4       0.126900
     17 C25          0.6960    -4.6580     6.2740 ca         1 CU4      -0.139000
     18 C26          4.9210     1.2170     8.7430 ca         1 CU4      -0.140200
     19 C27          4.9430     0.7760    10.0620 ca         1 CU4      -0.105000
     20 C28          5.6790     1.4560    11.0060 ca         1 CU4      -0.051000
     21 C29          6.4060     2.5910    10.6360 ca         1 CU4       0.033000
     22 C30          6.3830     3.0320     9.3110 ca         1 CU4      -0.051000
     23 C31          5.6430     2.3460     8.3730 ca         1 CU4      -0.105000
     24 C32          7.1730     3.3010    11.6160 cg         1 CU4       0.219800
     25 F24         -0.2610    -6.3540     4.9250 f          1 CU4      -0.125900
     26 N12          4.0820     0.8630     6.4350 nd         1 CU4      -0.653800
     27 N13          4.1770     0.5210     7.7860 na         1 CU4       0.653300
     28 N18          1.6580    -2.9300     7.6590 ns         1 CU4      -0.029100
     29 N33          7.7960     3.8640    12.3800 n1         1 CU4      -0.361800
     30 O03          2.3130    -1.2370    -0.4900 o          1 CU4      -0.590300
     31 O04          2.3130     1.2370    -0.4900 o          1 CU4      -0.590300
     32 O17          1.5280    -2.3540     5.5170 o          1 CU4      -0.641100
     33 S02          1.8140     0.0000     0.0000 sy         1 CU4       0.872300
     34 H1          -0.3610    -0.8160     0.6150 h1         1 CU4       0.059700
     35 H2          -0.3610    -0.1240    -1.0140 h1         1 CU4       0.059700
     36 H3          -0.3610     0.9400     0.3990 h1         1 CU4       0.059700
     37 H4           2.2850     2.1370     1.8480 ha         1 CU4       0.124000
     38 H5           2.8890     2.1450     4.2340 ha         1 CU4       0.131000
     39 H6           2.9000    -2.1460     4.2330 ha         1 CU4       0.131000
     40 H7           2.2950    -2.1360     1.8450 ha         1 CU4       0.124000
     41 H8           3.3280    -1.0770     8.9830 h4         1 CU4       0.151000
     42 H9          -0.0960    -3.7820     9.4470 ha         1 CU4       0.107000
     43 H10         -1.7180    -5.6080     9.1250 ha         1 CU4       0.107000
     44 H11         -1.7960    -6.8270     6.9830 ha         1 CU4       0.120000
     45 H12          1.3740    -4.3910     5.4720 ha         1 CU4       0.159000
     46 H13          4.3800    -0.1040    10.3480 ha         1 CU4       0.129000
     47 H14          5.6940     1.1100    12.0320 ha         1 CU4       0.120500
     48 H15          6.9450     3.9110     9.0220 ha         1 CU4       0.120500
     49 H16          5.6240     2.6880     7.3450 ha         1 CU4       0.129000
     50 H17          2.0510    -2.7610     8.5640 hn         1 CU4       0.165500
@<TRIPOS>BOND
     1     1    33 1   
     2     1    34 1   
     3     1    35 1   
     4     1    36 1   
     5     2     3 ar  
     6     2     7 ar  
     7     2    33 1   
     8     3     4 ar  
     9     3    37 1   
    10     4     5 ar  
    11     4    38 1   
    12     5     6 ar  
    13     5     8 1   
    14     6     7 ar  
    15     6    39 1   
    16     7    40 1   
    17     8    10 1   
    18     8    26 2   
    19     9    10 2   
    20     9    27 1   
    21     9    41 1   
    22    10    11 1   
    23    11    28 1   
    24    11    32 2   
    25    12    13 ar  
    26    12    17 ar  
    27    12    28 1   
    28    13    14 ar  
    29    13    42 1   
    30    14    15 ar  
    31    14    43 1   
    32    15    16 ar  
    33    15    44 1   
    34    16    17 ar  
    35    16    25 1   
    36    17    45 1   
    37    18    19 ar  
    38    18    23 ar  
    39    18    27 1   
    40    19    20 ar  
    41    19    46 1   
    42    20    21 ar  
    43    20    47 1   
    44    21    22 ar  
    45    21    24 1   
    46    22    23 ar  
    47    22    48 1   
    48    23    49 1   
    49    24    29 3   
    50    26    27 1   
    51    28    50 1   
    52    30    33 2   
    53    31    33 2   
@<TRIPOS>SUBSTRUCTURE
     1 CU4         1 TEMP              0 ****  ****    0 ROOT
