@<TRIPOS>MOLECULE
molecule
   35    37     1     0     0
SMALL
bcc


@<TRIPOS>ATOM
      1 C10          0.0000     0.0000     0.0000 c          1 CU5       0.582700
      2 C15          0.8070     3.9970     3.8060 c3         1 CU5       0.136700
      3 C17          4.1910    -1.1450     1.6510 ca         1 CU5      -0.106000
      4 C20          5.5270     1.2710     1.5250 ca         1 CU5      -0.128500
      5 C21          4.1460     1.2400     1.4580 ca         1 CU5      -0.106000
      6 C01          1.5190     0.0000     0.0000 c3         1 CU5      -0.208400
      7 C02          1.9730     0.0000     1.4680 c3         1 CU5       0.204400
      8 O03          1.4440     1.1520     2.1260 os         1 CU5      -0.307900
      9 C04          0.1130     1.3900     2.0480 ca         1 CU5       0.201100
     10 C05         -0.5050     2.1800     3.0050 ca         1 CU5       0.027100
     11 C06         -1.8710     2.4330     2.9260 ca         1 CU5       0.177100
     12 C07         -2.6310     1.9020     1.8910 ca         1 CU5      -0.284000
     13 C08         -2.0330     1.1090     0.9280 ca         1 CU5       0.223100
     14 C09         -0.6560     0.8460     1.0040 ca         1 CU5      -0.290600
     15 O11         -0.6380    -0.6620    -0.7910 o          1 CU5      -0.497100
     16 O12         -2.7730     0.5900    -0.0840 oh         1 CU5      -0.480100
     17 O13         -2.4670     3.2060     3.8690 oh         1 CU5      -0.505100
     18 O14          0.2260     2.7100     4.0250 os         1 CU5      -0.328900
     19 C16          3.4790     0.0320     1.5270 ca         1 CU5      -0.092300
     20 C18          5.5720    -1.1150     1.7110 ca         1 CU5      -0.128500
     21 C19          6.2400     0.0930     1.6480 ca         1 CU5      -0.119000
     22 H151         0.2960     4.7330     4.4160 h1         1 CU5       0.037367
     23 H152         1.8560     3.9710     4.0750 h1         1 CU5       0.037367
     24 H153         0.7090     4.2640     2.7610 h1         1 CU5       0.037367
     25 H201         6.0510     2.2180     1.4740 ha         1 CU5       0.133500
     26 H211         3.5880     2.1630     1.3620 ha         1 CU5       0.137000
     27 H011         1.8860     0.8890    -0.4990 hc         1 CU5       0.086700
     28 H012         1.8860    -0.8890    -0.4990 hc         1 CU5       0.086700
     29 H021         1.6060    -0.8940     1.9570 h1         1 CU5       0.062700
     30 H071        -3.6930     2.1060     1.8410 ha         1 CU5       0.150000
     31 H121        -3.5450     0.1790     0.2690 ho         1 CU5       0.428000
     32 H131        -3.0410     2.6740     4.3950 ho         1 CU5       0.431000
     33 H181         6.1300    -2.0390     1.8070 ha         1 CU5       0.133500
     34 H191         7.3210     0.1180     1.6980 ha         1 CU5       0.132000
     35 H171         3.6670    -2.0920     1.7020 ha         1 CU5       0.137000
@<TRIPOS>BOND
     1    16    13 1
     2    15     1 2
     3    13    12 ar
     4    13    14 ar
     5    12    11 ar
     6     1    14 1
     7     1     6 1
     8    14     9 ar
     9    20    21 ar
    10    20     3 ar
    11    21     4 ar
    12    11    17 1
    13    11    10 ar
    14     3    19 ar
    15     4     5 ar
    16     6     7 1
    17     9    10 ar
    18     9     8 1
    19    10    18 1
    20    19     5 ar
    21    19     7 1
    22     7     8 1
    23    18     2 1
    24     2    22 1
    25     2    23 1
    26     2    24 1
    27     3    35 1
    28     4    25 1
    29     5    26 1
    30     6    27 1
    31     6    28 1
    32     7    29 1
    33    12    30 1
    34    16    31 1
    35    17    32 1
    36    20    33 1
    37    21    34 1
@<TRIPOS>SUBSTRUCTURE
     1 CU5         1 TEMP              0 ****  ****    0 ROOT
