@<TRIPOS>MOLECULE
molecule
   29    28     1     0     0
SMALL
bcc


@<TRIPOS>ATOM
      1 C12          0.0000     0.0000     0.0000 c3         1 CU7       0.122400
      2 O1          10.6800    -2.5460    -1.8160 oh         1 CU7      -0.615800
      3 O6           5.9070    -2.0160    -1.3460 os         1 CU7      -0.601200
      4 C2           9.4140    -3.1790    -2.0130 c3         1 CU7       0.122400
      5 C3           8.3050    -2.2880    -1.4480 c3         1 CU7       0.142100
      6 C5           6.9420    -2.9040    -1.7690 c3         1 CU7       0.222400
      7 O4           8.4580    -2.1780    -0.0320 oh         1 CU7      -0.594800
      8 O15          3.9840    -2.4070    -3.0960 o          1 CU7      -0.827000
      9 P7           4.3400    -2.3450    -1.5270 p5         1 CU7       1.371800
     10 O14          4.0350    -3.6490    -0.8990 o          1 CU7      -0.827000
     11 O8           3.4640    -1.1910    -0.8240 os         1 CU7      -0.601200
     12 C9           2.0410    -1.2490    -0.7210 c3         1 CU7       0.222400
     13 C10          1.5300     0.0000     0.0000 c3         1 CU7       0.142100
     14 O13         -0.4760     1.2210     0.5690 oh         1 CU7      -0.615800
     15 O11          2.0070     0.0000     1.3470 oh         1 CU7      -0.594800
     16 H1          -0.3610    -0.0900    -1.0170 h1         1 CU7       0.027700
     17 H2          -0.3610    -0.8360     0.5860 h1         1 CU7       0.027700
     18 H3          11.3540    -3.0550    -2.2360 ho         1 CU7       0.389000
     19 H6           8.3710    -1.3030    -1.8960 h1         1 CU7       0.044700
     20 H7           6.8620    -3.0690    -2.8370 h1         1 CU7       0.038200
     21 H8           6.8420    -3.8490    -1.2490 h1         1 CU7       0.038200
     22 H9           8.5800    -1.2730     0.2020 ho         1 CU7       0.399000
     23 H11          1.6090    -1.2950    -1.7140 h1         1 CU7       0.038200
     24 H12          1.7550    -2.1320    -0.1620 h1         1 CU7       0.038200
     25 H13          1.8910     0.8850    -0.5110 h1         1 CU7       0.044700
     26 H14         -1.4150     1.2580     0.4940 ho         1 CU7       0.389000
     27 H15          2.5310     0.7700     1.4950 ho         1 CU7       0.399000
     28 H4           9.2480    -3.3350    -3.0720 h1         1 CU7       0.027700
     29 H5           9.4050    -4.1340    -1.5020 h1         1 CU7       0.027700
@<TRIPOS>BOND
     1    14     1 1
     2     1    13 1
     3    13    12 1
     4    13    15 1
     5    12    11 1
     6    11     9 1
     7    10     9 1
     8     9     3 1
     9     9     8 1
    10     7     5 1
    11     3     6 1
    12     6     5 1
    13     5     4 1
    14     2     4 1
    15     1    16 1
    16     1    17 1
    17     2    18 1
    18     4    28 1
    19     4    29 1
    20     5    19 1
    21     6    20 1
    22     6    21 1
    23     7    22 1
    24    12    23 1
    25    12    24 1
    26    13    25 1
    27    14    26 1
    28    15    27 1
@<TRIPOS>SUBSTRUCTURE
     1 CU7         1 TEMP              0 ****  ****    0 ROOT
