@<TRIPOS>MOLECULE
CU8
   32    34     1     0     0
SMALL
bcc


@<TRIPOS>ATOM
      1 O            0.0000     0.0000     0.0000 o          1 CU8      -0.446100
      2 C12          1.2170     0.0000     0.0000 c          1 CU8       0.389300
      3 N3           1.8920     0.0000     1.1670 nz         1 CU8       0.207600
      4 C5           1.9510    -0.0070    -1.2700 cc         1 CU8      -0.535800
      5 C            1.3900    -0.0090    -2.5610 cd         1 CU8       0.294500
      6 N            2.4340    -0.0160    -3.4410 na         1 CU8       0.573200
      7 N2           3.6250    -0.0190    -2.7060 nd         1 CU8      -0.660100
      8 C4           3.3490    -0.0080    -1.4280 cc         1 CU8       0.517500
      9 N1           0.1290    -0.0030    -2.9940 nd         1 CU8      -0.545000
     10 C3          -0.1530    -0.0060    -4.2780 cc         1 CU8       0.481200
     11 C2           0.8730    -0.0140    -5.2240 cc         1 CU8      -0.220300
     12 C1           2.1850    -0.0180    -4.7900 cd         1 CU8      -0.049300
     13 C6           3.2980    -0.0250    -5.7610 ca         1 CU8      -0.102000
     14 C10          4.1530    -1.1260    -5.8400 ca         1 CU8      -0.063000
     15 C11          5.1910    -1.1270    -6.7490 ca         1 CU8      -0.086000
     16 C9           5.3850    -0.0390    -7.5820 ca         1 CU8      -0.059000
     17 C8           4.5410     1.0550    -7.5100 ca         1 CU8      -0.083300
     18 C13          4.7610     2.2350    -8.4220 c3         1 CU8       0.061200
     19 C7           3.4960     1.0660    -6.6100 ca         1 CU8      -0.067000
     20 H1           2.4650    -0.8190     1.2220 hn         1 CU8       0.239467
     21 H2           1.2420     0.0030     1.9280 hn         1 CU8       0.239467
     22 H3           4.0760    -0.0000    -0.6250 h4         1 CU8       0.003800
     23 H4          -1.1870    -0.0030    -4.6040 h4         1 CU8       0.010100
     24 H5           0.6440    -0.0160    -6.2830 ha         1 CU8       0.157000
     25 H6           3.9600    -2.0050    -5.2370 ha         1 CU8       0.105000
     26 H7           5.8550    -1.9800    -6.8110 ha         1 CU8       0.117000
     27 H8           6.2000    -0.0450    -8.2950 ha         1 CU8       0.118000
     28 H9           4.8270     3.1410    -7.8310 hc         1 CU8       0.016033
     29 H10          5.6820     2.0970    -8.9750 hc         1 CU8       0.016033
     30 H11          3.9320     2.3160    -9.1140 hc         1 CU8       0.016033
     31 H12          2.9390     1.9920    -6.5240 ha         1 CU8       0.113000
     32 H33          2.4490     0.8290     1.2310 hn         1 CU8       0.239467
@<TRIPOS>BOND
     1     1     2 2   
     2     2     3 1   
     3     2     4 1   
     4     3    20 1   
     5     3    21 1   
     6     3    32 1   
     7     4     5 2   
     8     4     8 1   
     9     5     6 1   
    10     5     9 1   
    11     6     7 1   
    12     6    12 1   
    13     7     8 2   
    14     8    22 1   
    15     9    10 2   
    16    10    11 1   
    17    10    23 1   
    18    11    12 2   
    19    11    24 1   
    20    12    13 1   
    21    13    14 ar  
    22    13    19 ar  
    23    14    15 ar  
    24    14    25 1   
    25    15    16 ar  
    26    15    26 1   
    27    16    17 ar  
    28    16    27 1   
    29    17    18 1   
    30    17    19 ar  
    31    18    28 1   
    32    18    29 1   
    33    18    30 1   
    34    19    31 1   
@<TRIPOS>SUBSTRUCTURE
     1 CU8         1 TEMP              0 ****  ****    0 ROOT
