@<TRIPOS>MOLECULE
molecule
   32    34     1     0     0
SMALL
bcc


@<TRIPOS>ATOM
      1 O            0.0000     0.0000     0.0000 o          1 CU8      -0.429100
      2 C12          1.2170     0.0000     0.0000 c          1 CU8       0.531300
      3 N3           1.8920     0.0000     1.1670 nz         1 CU8      -0.672400
      4 C5           1.9510    -0.0070    -1.2700 cc         1 CU8      -0.489800
      5 C            1.3900    -0.0090    -2.5610 cd         1 CU8       0.512500
      6 N            2.4340    -0.0160    -3.4410 na         1 CU8       0.061200
      7 N2           3.6250    -0.0190    -2.7060 nd         1 CU8      -0.498100
      8 C4           3.3490    -0.0080    -1.4280 cc         1 CU8       0.434500
      9 N1           0.1290    -0.0030    -2.9940 nd         1 CU8      -0.682000
     10 C3          -0.1530    -0.0060    -4.2780 cc         1 CU8       0.522200
     11 C2           0.8730    -0.0140    -5.2240 cc         1 CU8      -0.291300
     12 C1           2.1850    -0.0180    -4.7900 cd         1 CU8       0.151700
     13 C6           3.2980    -0.0250    -5.7610 ca         1 CU8      -0.102000
     14 C10          4.1530    -1.1260    -5.8400 ca         1 CU8      -0.085000
     15 C11          5.1910    -1.1270    -6.7490 ca         1 CU8      -0.119000
     16 C9           5.3850    -0.0390    -7.5820 ca         1 CU8      -0.088000
     17 C8           4.5410     1.0550    -7.5100 ca         1 CU8      -0.078300
     18 C13          4.7610     2.2350    -8.4220 c3         1 CU8      -0.051800
     19 C7           3.4960     1.0660    -6.6100 ca         1 CU8      -0.093000
     20 H1           2.4650    -0.8190     1.2220 hn         1 CU8       0.470800
     21 H2           1.2420     0.0030     1.9280 hn         1 CU8       0.470800
     22 H3           4.0760    -0.0000    -0.6250 h4         1 CU8       0.056800
     23 H4          -1.1870    -0.0030    -4.6040 h4         1 CU8       0.065100
     24 H5           0.6440    -0.0160    -6.2830 ha         1 CU8       0.193000
     25 H6           3.9600    -2.0050    -5.2370 ha         1 CU8       0.138000
     26 H7           5.8550    -1.9800    -6.8110 ha         1 CU8       0.149000
     27 H8           6.2000    -0.0450    -8.2950 ha         1 CU8       0.149000
     28 H9           4.8270     3.1410    -7.8310 hc         1 CU8       0.054033
     29 H10          5.6820     2.0970    -8.9750 hc         1 CU8       0.054033
     30 H11          3.9320     2.3160    -9.1140 hc         1 CU8       0.054033
     31 H12          2.9390     1.9920    -6.5240 ha         1 CU8       0.142000
     32 H33          2.4490     0.8290     1.2310 hn         1 CU8       0.470800
@<TRIPOS>BOND
     1     1     2 2
     2     3     2 1
     3     2     4 1
     4     4     8 1
     5     4     5 2
     6     8     7 2
     7     9     5 1
     8     9    10 2
     9     5     6 1
    10     7     6 1
    11     6    12 1
    12    10    11 1
    13    12    11 2
    14    12    13 1
    15    14    13 ar
    16    14    15 ar
    17    13    19 ar
    18    15    16 ar
    19    19    17 ar
    20    16    17 ar
    21    17    18 1
    22     3    20 1
    23     3    21 1
    24     8    22 1
    25    10    23 1
    26    11    24 1
    27    14    25 1
    28    15    26 1
    29    16    27 1
    30    18    28 1
    31    18    29 1
    32    18    30 1
    33    19    31 1
    34    32     3 1
@<TRIPOS>SUBSTRUCTURE
     1 CU8         1 TEMP              0 ****  ****    0 ROOT
