@<TRIPOS>MOLECULE
CU9
   96   102     1     0     0
SMALL
bcc


@<TRIPOS>ATOM
      1 N1          0.2270   -0.4450    0.0250 n4        1 CU9     -0.605800
      2 C2          1.5250    0.1570    0.4860 c3        1 CU9      0.119800
      3 C3          1.4820    0.6610    1.9210 c3        1 CU9     -0.060100
      4 C4          0.7090   -0.2230    2.8350 ca        1 CU9     -0.049300
      5 C5         -0.0300   -1.3090    2.3540 ca        1 CU9     -0.173300
      6 C6         -0.0970   -1.6630    0.8910 c3        1 CU9      0.211800
      7 C7          0.7040    0.0860    4.1990 ca        1 CU9     -0.199000
      8 C8         -0.0280   -0.6980    5.0990 ca        1 CU9      0.184100
      9 C9         -0.7500   -1.8200    4.6080 ca        1 CU9      0.084100
     10 C10        -0.7540   -2.1110    3.2480 ca        1 CU9     -0.095000
     11 O11        -1.5540   -2.5190    5.5030 os        1 CU9     -0.217200
     12 C12        -1.2690   -3.8780    5.6360 ca        1 CU9      0.066100
     13 C13        -0.0850   -4.3390    6.2590 ca        1 CU9      0.143100
     14 C14         0.0510   -5.7070    6.5330 ca        1 CU9     -0.187000
     15 C15        -0.9690   -6.5890    6.1900 ca        1 CU9     -0.103000
     16 C16        -2.1330   -6.1430    5.5580 ca        1 CU9     -0.135300
     17 C17        -2.2760   -4.7770    5.2780 ca        1 CU9     -0.088000
     18 C18        -3.2570   -7.0610    5.2240 c3        1 CU9     -0.036100
     19 C19        -2.7960   -8.3760    4.5630 c3        1 CU9      0.211800
     20 N20        -3.1640   -9.6300    5.3650 n4        1 CU9     -0.604800
     21 C21        -4.6600   -9.7490    5.4980 c3        1 CU9      0.116800
     22 C22        -5.4820   -9.2490    4.3090 c3        1 CU9     -0.056100
     23 C23        -4.7030   -8.9830    3.0720 ca        1 CU9     -0.047300
     24 C24        -3.3880   -8.5130    3.1890 ca        1 CU9     -0.183300
     25 C25        -5.2810   -9.1790    1.8180 ca        1 CU9     -0.189000
     26 C26        -4.5400   -8.9130    0.6590 ca        1 CU9      0.152100
     27 C27        -3.1990   -8.4540    0.7570 ca        1 CU9      0.067100
     28 C28        -2.6400   -8.2410    2.0290 ca        1 CU9      0.137100
     29 O29        -1.3020   -7.9010    2.1930 os        1 CU9     -0.254200
     30 C30        -0.8930   -6.6330    1.7780 ca        1 CU9      0.133100
     31 C31         0.4250   -6.3100    2.1430 ca        1 CU9     -0.146500
     32 C32         0.9440   -5.0730    1.7760 ca        1 CU9     -0.094000
     33 C33         0.1740   -4.1610    1.0380 ca        1 CU9     -0.124300
     34 C34        -1.1300   -4.5100    0.6710 ca        1 CU9     -0.094000
     35 C35        -1.6770   -5.7340    1.0490 ca        1 CU9     -0.146500
     36 C36         0.7950   -2.8820    0.5880 c3        1 CU9     -0.041100
     37 O37        -0.1210   -0.4680    6.4430 os        1 CU9     -0.280900
     38 C38         0.5370    0.6980    6.9430 c3        1 CU9      0.101700
     39 O39         0.8730   -3.3960    6.5320 os        1 CU9     -0.309900
     40 O40        -5.0120   -9.0800   -0.6150 os        1 CU9     -0.304900
     41 C41        -6.3560   -9.5480   -0.7530 c3        1 CU9      0.103700
     42 O42        -2.4660   -8.0910   -0.3520 os        1 CU9     -0.327900
     43 C43        -0.8810    0.5510    0.1630 c3        1 CU9      0.089100
     44 C44        -2.6300  -10.8340    4.6530 c3        1 CU9      0.089100
     45 C45        -2.5510   -9.5960    6.7240 c3        1 CU9      0.089100
     46 C46        -2.1670   -9.1630   -1.2560 c3        1 CU9      0.114700
     47 C47         0.3430   -0.8090   -1.4170 c3        1 CU9      0.089100
     48 C48         1.9640   -3.8170    7.3510 c3        1 CU9      0.108700
     49 H2          2.3140   -0.6430    0.3860 hx        1 CU9      0.099200
     50 H2A         1.7820    1.0070   -0.2080 hx        1 CU9      0.099200
     51 H3          2.5450    0.7490    2.2810 hc        1 CU9      0.093700
     52 H3A         1.0390    1.6960    1.9500 hc        1 CU9      0.093700
     53 H6         -1.1690   -1.9260    0.6300 hx        1 CU9      0.096700
     54 H7          1.2830    0.9500    4.5590 ha        1 CU9      0.161000
     55 H10        -1.3200   -2.9820    2.8800 ha        1 CU9      0.158000
     56 H14         0.9550   -6.0880    7.0320 ha        1 CU9      0.156000
     57 H15        -0.8410   -7.6540    6.4340 ha        1 CU9      0.116000
     58 H17        -3.1910   -4.3900    4.8030 ha        1 CU9      0.155000
     59 H18        -3.9590   -6.5460    4.5100 hc        1 CU9      0.075700
     60 H18A       -3.8550   -7.2470    6.1580 hc        1 CU9      0.075700
     61 H19        -1.6650   -8.3800    4.4860 hx        1 CU9      0.121700
     62 H21        -4.8920  -10.8370    5.6850 hx        1 CU9      0.098700
     63 H21A       -4.9700   -9.1690    6.4160 hx        1 CU9      0.098700
     64 H22        -6.2890  -10.0060    4.1070 hc        1 CU9      0.093700
     65 H22A       -5.9960   -8.2920    4.6080 hc        1 CU9      0.093700
     66 H25        -6.3190   -9.5390    1.7460 ha        1 CU9      0.166000
     67 H31         1.0350   -7.0350    2.7020 ha        1 CU9      0.161500
     68 H32         1.9760   -4.8170    2.0630 ha        1 CU9      0.139000
     69 H34        -1.7410   -3.8310    0.0580 ha        1 CU9      0.139000
     70 H35        -2.7000   -5.9970    0.7410 ha        1 CU9      0.161500
     71 H36         1.7900   -2.7410    1.0900 hc        1 CU9      0.071200
     72 H36A        0.9820   -2.9860   -0.5160 hc        1 CU9      0.071200
     73 H38         0.2820    0.6790    8.0340 h1        1 CU9      0.060367
     74 H38A        0.1320    1.6180    6.4570 h1        1 CU9      0.060367
     75 H38B        1.6410    0.6180    6.7920 h1        1 CU9      0.060367
     76 H41        -6.4650  -10.5630   -0.3010 h1        1 CU9      0.064033
     77 H41A       -6.4900   -9.5910   -1.8660 h1        1 CU9      0.064033
     78 H41B       -7.0720   -8.8240   -0.2950 h1        1 CU9      0.064033
     79 H43        -1.8070    0.1440   -0.3240 hx        1 CU9      0.101367
     80 H43A       -1.0830    0.7430    1.2510 hx        1 CU9      0.101367
     81 H43B       -0.5810    1.5090   -0.3380 hx        1 CU9      0.101367
     82 H44        -1.5350  -10.6920    4.4510 hx        1 CU9      0.101533
     83 H44A       -2.7810  -11.7410    5.2960 hx        1 CU9      0.101533
     84 H44B       -3.1740  -10.9680    3.6800 hx        1 CU9      0.101533
     85 H45        -2.7950   -8.6300    7.2410 hx        1 CU9      0.101533
     86 H45A       -2.9490  -10.4540    7.3300 hx        1 CU9      0.101533
     87 H45B       -1.4370   -9.6970    6.6270 hx        1 CU9      0.101533
     88 H46        -1.5790   -9.9550   -0.7340 h1        1 CU9      0.059033
     89 H46A       -3.1060   -9.5820   -1.6900 h1        1 CU9      0.059033
     90 H46B       -1.5510   -8.6600   -2.0450 h1        1 CU9      0.059033
     91 H47        -0.5000   -1.4940   -1.6970 hx        1 CU9      0.101367
     92 H47A        1.3260   -1.3130   -1.6140 hx        1 CU9      0.101367
     93 H47B        0.2880    0.1250   -2.0390 hx        1 CU9      0.101367
     94 H48         2.5940   -4.5610    6.8050 h1        1 CU9      0.057367
     95 H48A        1.5960   -4.2380    8.3170 h1        1 CU9      0.057367
     96 H48B        2.5330   -2.8680    7.5240 h1        1 CU9      0.057367
@<TRIPOS>BOND
     1    1    2 1
     2    1    6 1
     3    1   43 1
     4    1   47 1
     5    2    3 1
     6    2   49 1
     7    2   50 1
     8    3    4 1
     9    3   51 1
    10    3   52 1
    11    4    5 ar
    12    4    7 ar
    13    5    6 1
    14    5   10 ar
    15    6   36 1
    16    6   53 1
    17    7    8 ar
    18    7   54 1
    19    8    9 ar
    20    8   37 1
    21    9   10 ar
    22    9   11 1
    23   10   55 1
    24   11   12 1
    25   12   13 ar
    26   12   17 ar
    27   13   14 ar
    28   13   39 1
    29   14   15 ar
    30   14   56 1
    31   15   16 ar
    32   15   57 1
    33   16   17 ar
    34   16   18 1
    35   17   58 1
    36   18   19 1
    37   18   59 1
    38   18   60 1
    39   19   20 1
    40   19   24 1
    41   19   61 1
    42   20   21 1
    43   20   44 1
    44   20   45 1
    45   21   22 1
    46   21   62 1
    47   21   63 1
    48   22   23 1
    49   22   64 1
    50   22   65 1
    51   23   24 ar
    52   23   25 ar
    53   24   28 ar
    54   25   26 ar
    55   25   66 1
    56   26   27 ar
    57   26   40 1
    58   27   28 ar
    59   27   42 1
    60   28   29 1
    61   29   30 1
    62   30   31 ar
    63   30   35 ar
    64   31   32 ar
    65   31   67 1
    66   32   33 ar
    67   32   68 1
    68   33   34 ar
    69   33   36 1
    70   34   35 ar
    71   34   69 1
    72   35   70 1
    73   36   71 1
    74   36   72 1
    75   37   38 1
    76   38   73 1
    77   38   74 1
    78   38   75 1
    79   39   48 1
    80   40   41 1
    81   41   76 1
    82   41   77 1
    83   41   78 1
    84   42   46 1
    85   43   79 1
    86   43   80 1
    87   43   81 1
    88   44   82 1
    89   44   83 1
    90   44   84 1
    91   45   85 1
    92   45   86 1
    93   45   87 1
    94   46   88 1
    95   46   89 1
    96   46   90 1
    97   47   91 1
    98   47   92 1
    99   47   93 1
   100   48   94 1
   101   48   95 1
   102   48   96 1
@<TRIPOS>SUBSTRUCTURE
     1 CU9         1 TEMP              0 ****  ****    0 ROOT
