@<TRIPOS>MOLECULE
CUE
   28    29     1     0     0
SMALL
bcc


@<TRIPOS>ATOM
      1 OAA         0.2350   -0.7710    1.9670 o         1 CUE     -0.280000
      2 OAC         2.2070    0.0040   -7.7970 oh        1 CUE     -0.232000
      3 CAD         6.3700    0.2960    1.2680 c1        1 CUE     -0.106000
      4 CAE        -0.1160    0.7030   -7.4810 c2        1 CUE     -0.496000
      5 CAF         5.4060    0.2350    0.1900 c3        1 CUE     -0.164000
      6 CAG        -1.2040   -0.0320   -7.5950 c1        1 CUE      0.281000
      7 CAH         4.6040   -0.1450    2.9440 c2        1 CUE     -0.092000
      8 CAI         1.3290    0.1610   -5.5990 c1        1 CUE      0.190000
      9 OAJ         2.3530   -0.4560    2.3080 os        1 CUE     -0.192000
     10 OAK         3.0260    0.0220   -1.7600 os        1 CUE     -0.081000
     11 CAL         5.9130    0.0990    2.6140 c2        1 CUE      0.005000
     12 CAM         1.1690    0.2880   -6.9260 c2        1 CUE     -0.165000
     13 CAN         1.2920   -0.5470    1.3860 c2        1 CUE      0.380000
     14 CAO         3.6350   -0.2070    1.8770 c2        1 CUE      0.110000
     15 CAP         1.7140   -0.1490   -2.2470 c2        1 CUE     -0.092000
     16 CAQ         3.9980   -0.0280    0.5550 c2        1 CUE     -0.159000
     17 CAR         0.8310   -0.3880   -1.2130 c2        1 CUE     -0.134000
     18 CAS         2.9390   -0.1160   -0.3870 c2        1 CUE      0.071000
     19 CAT         1.6140   -0.3690   -0.0020 c2        1 CUE     -0.224000
     20 H1          7.6940    0.3350    3.2350 ho        1 CUE      0.245000
     21 H2          2.0400    0.4960   -8.6140 ho        1 CUE      0.226000
     22 H3          5.4810    1.2130   -0.3800 hc        1 CUE      0.180500
     23 H4         -0.1460    1.7530   -7.8460 ha        1 CUE      0.204000
     24 H5          5.7700   -0.5570   -0.5370 hc        1 CUE      0.180500
     25 H6         -0.2410   -0.5600   -1.2730 ha        1 CUE      0.181000
     26 H7          4.2620   -0.2950    3.9790 ha        1 CUE      0.179000
     27 H8          1.6370   -0.0620   -3.3340 h4        1 CUE      0.229000
     28 OAB         6.8270    0.1570    3.6380 oh        1 CUE     -0.244000
@<TRIPOS>BOND
     1    1   13 1   
     2    2   12 1   
     3    2   21 1   
     4    3    5 1   
     5    3   11 1   
     6    4    6 1   
     7    4   12 1   
     8    4   23 1   
     9    5   16 1   
    10    5   22 1   
    11    5   24 1   
    12    7   11 1   
    13    7   14 1   
    14    7   26 1   
    15    8   12 1   
    16    9   13 1   
    17    9   14 1   
    18   10   15 1   
    19   10   18 1   
    20   11   28 1   
    21   13   19 1   
    22   14   16 1   
    23   15   17 1   
    24   15   27 1   
    25   16   18 1   
    26   17   19 1   
    27   17   25 1   
    28   18   19 1   
    29   20   28 1   
@<TRIPOS>SUBSTRUCTURE
     1 CUE         1 TEMP              0 ****  ****    0 ROOT
