@<TRIPOS>MOLECULE
molecule
   43    44     1     0     0
SMALL
bcc


@<TRIPOS>ATOM
      1 N            0.0000     0.0000     0.0000 ns         1 CUG      -0.516900
      2 CA           1.4640     0.0000     0.0000 c3         1 CUG       0.008700
      3 C            1.9680     1.2300    -0.7100 c          1 CUG       0.893600
      4 O            1.1830     2.0250    -1.1700 o          1 CUG      -0.838300
      5 CB           1.9750     0.0000     1.4430 c3         1 CUG       0.369600
      6 CAJ         -4.2370    -1.1540    -2.2280 cc         1 CUG      -0.168400
      7 CAL          1.8760     1.0860     4.0380 c3         1 CUG       0.111900
      8 CAW         -0.6740    -0.4990    -1.0560 c          1 CUG       0.589800
      9 CAX          1.7390    -0.3720     4.3720 c2         1 CUG      -0.305400
     10 CAZ         -2.1550    -0.4980    -1.0560 ce         1 CUG       0.335300
     11 CBA          1.6160    -1.3490     3.5020 ce         1 CUG       0.158800
     12 CBB         -3.0330    -1.9270    -4.2700 cd         1 CUG       0.749300
     13 CBC         -2.8950    -1.0460    -2.2150 cc         1 CUG       0.366000
     14 NAM         -2.8070    -0.0160    -0.0360 n2         1 CUG      -0.409200
     15 NAN         -2.2800    -1.4670    -3.3200 nc         1 CUG      -0.679000
     16 NBI          1.5680    -1.2410     2.1180 nu         1 CUG      -0.807000
     17 OAE         -0.0660    -0.9480    -2.0070 o          1 CUG      -0.585100
     18 OAR         -4.2170     0.1020    -0.0890 os         1 CUG      -0.227300
     19 SAT          1.2300     1.3850     2.3640 ss         1 CUG      -0.417200
     20 SAU         -4.7200    -1.8470    -3.7740 ss         1 CUG      -0.394300
     21 H1          -0.5000     0.3990     0.7690 hn         1 CUG       0.338500
     22 H2           1.8250    -0.8850    -0.5110 h1         1 CUG       0.082700
     23 H4           3.0550     0.0890     1.4580 h2         1 CUG       0.100700
     24 H5          -5.8410     0.8780     0.9150 h1         1 CUG       0.034700
     25 H6          -4.7270    -0.0790     1.9000 h1         1 CUG       0.034700
     26 H7          -4.2710     1.5490     1.3780 h1         1 CUG       0.034700
     27 H8          -4.9050    -0.8660    -1.4260 h4         1 CUG       0.211000
     28 H9           0.9240    -0.2510     6.3350 h1         1 CUG       0.026200
     29 H10          1.6320    -1.8200     5.9280 h1         1 CUG       0.026200
     30 H11          2.9220     1.3670     4.0750 h1         1 CUG       0.049700
     31 H12          1.3120     1.6740     4.7520 h1         1 CUG       0.049700
     32 H15         -1.6030    -2.3740    -5.7060 hn         1 CUG       0.442800
     33 H16         -3.2320    -2.7490    -6.1650 hn         1 CUG       0.442800
     34 H17          1.2520    -2.0190     1.5730 hn         1 CUG       0.442800
     35 H19          2.9310    -0.4430     7.3580 ho         1 CUG       0.362000
     36 O1           3.2870     1.4430    -0.8330 o          1 CUG      -0.838300
     37 CAK          1.7440    -0.7470     5.8310 c3         1 CUG       0.207600
     38 CAV          1.5170    -2.7120     4.0570 c          1 CUG       0.876800
     39 NAC         -2.5790    -2.4080    -5.4870 nv         1 CUG      -1.000500
     40 CAA         -4.7990     0.6450     1.0980 c3         1 CUG       0.137700
     41 O2           2.9820    -0.3420     6.4210 oh         1 CUG      -0.615800
     42 OAD          2.6360    -3.3970     4.3630 o          1 CUG      -0.840800
     43 OAI          0.4260    -3.2160     4.2390 o          1 CUG      -0.840800
@<TRIPOS>BOND
     1     7     9 1
     2     7    19 1
     3    37     9 1
     4    37    41 1
     5     9    11 2
     6    17     8 2
     7    19     5 1
     8    16     5 1
     9    16    11 1
    10     5     2 1
    11    11    38 1
    12    43    38 1
    13     8     1 1
    14     8    10 1
    15     1     2 1
    16    38    42 1
    17     2     3 1
    18     3     4 1
    19    10    14 2
    20    10    13 1
    21    14    18 1
    22     6    13 2
    23     6    20 1
    24    13    15 1
    25    40    18 1
    26    20    12 1
    27    15    12 2
    28    12    39 1
    29     1    21 1
    30     2    22 1
    31     5    23 1
    32    40    24 1
    33    40    25 1
    34    40    26 1
    35     6    27 1
    36    37    28 1
    37    37    29 1
    38     7    30 1
    39     7    31 1
    40    39    32 1
    41    39    33 1
    42    16    34 1
    43    41    35 1
    44     3    36 1
@<TRIPOS>SUBSTRUCTURE
     1 CUG         1 TEMP              0 ****  ****    0 ROOT
