@<TRIPOS>MOLECULE
CUG
   43    44     1     0     0
SMALL
bcc


@<TRIPOS>ATOM
      1 N            0.0000     0.0000     0.0000 ns         1 CUG      -0.106900
      2 CA           1.4640     0.0000     0.0000 c3         1 CUG      -0.093300
      3 C            1.9680     1.2300    -0.7100 c          1 CUG       0.986600
      4 O            1.1830     2.0250    -1.1700 o          1 CUG      -0.889300
      5 CB           1.9750     0.0000     1.4430 c3         1 CUG       0.282600
      6 CAJ         -4.2370    -1.1540    -2.2280 cc         1 CUG      -0.158400
      7 CAL          1.8760     1.0860     4.0380 c3         1 CUG       0.198900
      8 CAW         -0.6740    -0.4990    -1.0560 c          1 CUG       0.484800
      9 CAX          1.7390    -0.3720     4.3720 c2         1 CUG      -0.332400
     10 CAZ         -2.1550    -0.4980    -1.0560 cf         1 CUG       0.309300
     11 CBA          1.6160    -1.3490     3.5020 ce         1 CUG       0.018800
     12 CBB         -3.0330    -1.9270    -4.2700 cc         1 CUG       0.556300
     13 CBC         -2.8950    -1.0460    -2.2150 cd         1 CUG       0.350000
     14 NAM         -2.8070    -0.0160    -0.0360 n2         1 CUG      -0.379200
     15 NAN         -2.2800    -1.4670    -3.3200 nd         1 CUG      -0.552000
     16 NBI          1.5680    -1.2410     2.1180 nu         1 CUG      -0.408000
     17 OAE         -0.0660    -0.9480    -2.0070 o          1 CUG      -0.645100
     18 OAR         -4.2170     0.1020    -0.0890 os         1 CUG      -0.212300
     19 SAT          1.2300     1.3850     2.3640 ss         1 CUG      -0.468200
     20 SAU         -4.7200    -1.8470    -3.7740 ss         1 CUG      -0.446300
     21 H1          -0.5000     0.4070     0.7650 hn         1 CUG       0.200500
     22 H2           1.8250    -0.8850    -0.5110 h1         1 CUG       0.062700
     23 H4           3.0550     0.0890     1.4580 h2         1 CUG       0.081700
     24 H5          -5.8640     0.7770     0.9500 h1         1 CUG      -0.007633
     25 H6          -4.6310    -0.0330     1.9260 h1         1 CUG      -0.007633
     26 H7          -4.3440     1.6030     1.3170 h1         1 CUG      -0.007633
     27 H8          -4.9050    -0.8660    -1.4260 h4         1 CUG       0.193000
     28 H9           1.6320    -1.8200     5.9280 h1         1 CUG      -0.001300
     29 H10          0.9240    -0.2510     6.3350 h1         1 CUG      -0.001300
     30 H11          1.3120     1.6740     4.7520 h1         1 CUG       0.028200
     31 H12          2.9220     1.3670     4.0750 h1         1 CUG       0.028200
     32 H15         -1.5970    -2.5070    -5.6520 hn         1 CUG       0.268800
     33 H16         -3.2330    -2.6460    -6.2060 hn         1 CUG       0.268800
     34 H17          1.2530    -2.0190     1.5730 hn         1 CUG       0.297800
     35 H19          2.9290    -0.4380     7.3580 ho         1 CUG       0.351000
     36 O1           3.2870     1.4430    -0.8330 o          1 CUG      -0.889300
     37 CAK          1.7440    -0.7470     5.8310 c3         1 CUG       0.281600
     38 CAV          1.5170    -2.7120     4.0570 c          1 CUG       0.976800
     39 NAC         -2.5790    -2.4080    -5.4870 nv         1 CUG      -0.500500
     40 CAA         -4.7990     0.6450     1.0980 c3         1 CUG       0.260700
     41 O2           2.9820    -0.3420     6.4210 oh         1 CUG      -0.596800
     42 OAD          2.6360    -3.3970     4.3630 o          1 CUG      -0.892300
     43 OAI          0.4260    -3.2160     4.2390 o          1 CUG      -0.892300
@<TRIPOS>BOND
     1     1     2 1   
     2     1     8 1   
     3     1    21 1   
     4     2     3 1   
     5     2     5 1   
     6     2    22 1   
     7     3     4 1   
     8     3    36 1   
     9     5    16 1   
    10     5    19 1   
    11     5    23 1   
    12     6    13 2   
    13     6    20 1   
    14     6    27 1   
    15     7     9 1   
    16     7    19 1   
    17     7    30 1   
    18     7    31 1   
    19     8    10 1   
    20     8    17 2   
    21     9    11 2   
    22     9    37 1   
    23    10    13 1   
    24    10    14 2   
    25    11    16 1   
    26    11    38 1   
    27    12    15 2   
    28    12    20 1   
    29    12    39 1   
    30    13    15 1   
    31    14    18 1   
    32    16    34 1   
    33    18    40 1   
    34    24    40 1   
    35    25    40 1   
    36    26    40 1   
    37    28    37 1   
    38    29    37 1   
    39    32    39 1   
    40    33    39 1   
    41    35    41 1   
    42    37    41 1   
    43    38    42 1   
    44    38    43 1   
@<TRIPOS>SUBSTRUCTURE
     1 CUG         1 TEMP              0 ****  ****    0 ROOT
