@<TRIPOS>MOLECULE
molecule
   27    28     1     0     0
SMALL
bcc


@<TRIPOS>ATOM
      1 C10          0.0000     0.0000     0.0000 ca         1 CUH       0.124100
      2 C13          1.4070    -0.0010     2.4030 ca         1 CUH      -0.172000
      3 C01          2.4170     3.5650    -3.5680 ca         1 CUH      -0.098000
      4 C02          2.9240     2.3800    -4.0730 ca         1 CUH      -0.145000
      5 C03          2.8380     1.2200    -3.3320 ca         1 CUH      -0.071000
      6 C04          2.2380     1.2410    -2.0720 ca         1 CUH      -0.171600
      7 C05          1.7270     2.4400    -1.5690 ca         1 CUH      -0.071000
      8 C06          1.8200     3.5940    -2.3200 ca         1 CUH      -0.145000
      9 C07          2.1430     0.0000    -1.2740 c          1 CUH       0.604300
     10 O08          2.6730    -1.0190    -1.6690 o          1 CUH      -0.518100
     11 C09          1.4040     0.0000     0.0000 ca         1 CUH      -0.178600
     12 C11         -0.6860     0.0060     1.2050 ca         1 CUH       0.053100
     13 C12          0.0160     0.0060     2.4050 ca         1 CUH       0.111100
     14 C14          2.0990     0.0000     1.2140 ca         1 CUH      -0.073000
     15 O15         -0.6580     0.0060     3.5840 oh         1 CUH      -0.510100
     16 O16         -2.0480     0.0120     1.2130 oh         1 CUH      -0.498100
     17 O17         -0.6820    -0.0010    -1.1740 oh         1 CUH      -0.501100
     18 H131         1.9480    -0.0000     3.3420 ha         1 CUH       0.147000
     19 H021         3.3900     2.3650    -5.0510 ha         1 CUH       0.134500
     20 H031         3.2360     0.2930    -3.7280 ha         1 CUH       0.145000
     21 H051         1.2600     2.4640    -0.5920 ha         1 CUH       0.145000
     22 H061         1.4250     4.5250    -1.9310 ha         1 CUH       0.134500
     23 H141         3.1820    -0.0020     1.2180 ha         1 CUH       0.149000
     24 H151        -0.5480     0.8400     4.0090 ho         1 CUH       0.429000
     25 H161        -2.3670    -0.8750     1.2460 ho         1 CUH       0.421000
     26 H171        -0.9860    -0.8730    -1.3610 ho         1 CUH       0.426000
     27 H011         2.4870     4.4740    -4.1540 ha         1 CUH       0.131000
@<TRIPOS>BOND
     1    15    13 1
     2     2    13 ar
     3     2    14 ar
     4    13    12 ar
     5    14    11 ar
     6    12    16 1
     7    12     1 ar
     8    11     1 ar
     9    11     9 1
    10     1    17 1
    11     5     4 ar
    12     5     6 ar
    13     4     3 ar
    14     9     6 1
    15     9    10 2
    16     6     7 ar
    17     3     8 ar
    18     7     8 ar
    19     2    18 1
    20     3    27 1
    21     4    19 1
    22     5    20 1
    23     7    21 1
    24     8    22 1
    25    14    23 1
    26    15    24 1
    27    16    25 1
    28    17    26 1
@<TRIPOS>SUBSTRUCTURE
     1 CUH         1 TEMP              0 ****  ****    0 ROOT
