@<TRIPOS>MOLECULE
molecule
   26    27     1     0     0
SMALL
bcc


@<TRIPOS>ATOM
      1 C10          0.0000     0.0000     0.0000 ca         1 CUQ      -0.119000
      2 C13          1.4020     0.0120     2.4040 ca         1 CUQ      -0.171000
      3 C01          0.0460    -0.4890    -4.9410 ca         1 CUQ      -0.104000
      4 C02         -0.3940    -1.1440    -3.8030 ca         1 CUQ      -0.138500
      5 C03          0.2790    -0.9890    -2.6100 ca         1 CUQ      -0.089500
      6 C04          1.4100    -0.1710    -2.5510 ca         1 CUQ      -0.167600
      7 C05          1.8490     0.4860    -3.7030 ca         1 CUQ      -0.089500
      8 C06          1.1660     0.3240    -4.8900 ca         1 CUQ      -0.138500
      9 C07          2.1380    -0.0000    -1.2760 c          1 CUQ       0.593300
     10 C09          1.3980     0.0000     0.0000 ca         1 CUQ      -0.171600
     11 C11         -0.6880     0.0050     1.1980 ca         1 CUQ       0.072100
     12 C12          0.0130     0.0110     2.4040 ca         1 CUQ       0.117100
     13 C14          2.0940     0.0000     1.2130 ca         1 CUQ      -0.062000
     14 O08          3.3450     0.1400    -1.2790 o          1 CUQ      -0.522100
     15 O15         -0.6630     0.0170     3.5800 oh         1 CUQ      -0.512100
     16 O16         -2.0480     0.0050     1.2020 oh         1 CUQ      -0.511100
     17 H101        -0.5430    -0.0040    -0.9370 ha         1 CUQ       0.161000
     18 H131         1.9430     0.0140     3.3430 ha         1 CUQ       0.148000
     19 H021        -1.2710    -1.7780    -3.8510 ha         1 CUQ       0.135500
     20 H031        -0.0670    -1.5020    -1.7210 ha         1 CUQ       0.146500
     21 H051         2.7250     1.1220    -3.6640 ha         1 CUQ       0.146500
     22 H061         1.5050     0.8330    -5.7830 ha         1 CUQ       0.135500
     23 H141         3.1770     0.0000     1.2150 ha         1 CUQ       0.158000
     24 H151        -0.6120    -0.8370     3.9770 ho         1 CUQ       0.429000
     25 H161        -2.3620     0.8860     1.0840 ho         1 CUQ       0.425000
     26 H011        -0.4870    -0.6140    -5.8750 ha         1 CUQ       0.133000
@<TRIPOS>BOND
     1    16    11 1
     2    11     1 ar
     3    11    12 ar
     4    15    12 1
     5     1    10 ar
     6    12     2 ar
     7    10     9 1
     8    10    13 ar
     9     2    13 ar
    10     5     4 ar
    11     5     6 ar
    12     4     3 ar
    13     6     9 1
    14     6     7 ar
    15     9    14 2
    16     3     8 ar
    17     7     8 ar
    18     1    17 1
    19     2    18 1
    20     3    26 1
    21     4    19 1
    22     5    20 1
    23     7    21 1
    24     8    22 1
    25    13    23 1
    26    15    24 1
    27    16    25 1
@<TRIPOS>SUBSTRUCTURE
     1 CUQ         1 TEMP              0 ****  ****    0 ROOT
