@<TRIPOS>MOLECULE
molecule
   47    48     1     0     0
SMALL
bcc


@<TRIPOS>ATOM
      1 O16          0.0000     0.0000     0.0000 oh         1 CUR      -0.518100
      2 C15          1.3540     0.0000     0.0000 ce         1 CUR       0.369100
      3 C17          2.0620     0.0000     1.2270 ce         1 CUR      -0.216000
      4 C18          1.3860     0.0010     2.3980 cf         1 CUR       0.002800
      5 C19          2.1210     0.0010     3.6700 ca         1 CUR      -0.080800
      6 C24          3.5210     0.0070     3.6720 ca         1 CUR      -0.110000
      7 C23          4.2070     0.0080     4.8660 ca         1 CUR      -0.144000
      8 C22          3.5140     0.0030     6.0700 ca         1 CUR       0.113100
      9 O4'          4.1960     0.0030     7.2440 oh         1 CUR      -0.498100
     10 C21          2.1190    -0.0030     6.0760 ca         1 CUR       0.120100
     11 O26          1.4440    -0.0080     7.2570 os         1 CUR      -0.308900
     12 C27          0.0170    -0.0130     7.1890 c3         1 CUR       0.124700
     13 C20          1.4230     0.0020     4.8840 ca         1 CUR      -0.177000
     14 C10          2.0430    -0.0010    -1.1930 cf         1 CUR      -0.531200
     15 C9           1.3700     0.3010    -2.3950 c          1 CUR       0.669500
     16 O2           0.2140     0.6930    -2.3660 o          1 CUR      -0.604100
     17 C8           2.0590     0.1440    -3.6790 cf         1 CUR      -0.163200
     18 C7           1.3810     0.3120    -4.8330 ce         1 CUR      -0.197200
     19 C1          -0.0850     0.4150    -4.8160 ca         1 CUR       0.030200
     20 C2          -0.7300     1.3830    -5.5950 ca         1 CUR      -0.224000
     21 C3          -2.1080     1.4750    -5.5750 ca         1 CUR       0.130100
     22 O3          -2.7380     2.4130    -6.3300 os         1 CUR      -0.312900
     23 C3O         -1.9120     3.2710    -7.1210 c3         1 CUR       0.124700
     24 C4          -2.8540     0.6040    -4.7800 ca         1 CUR       0.090100
     25 O4          -4.2080     0.6990    -4.7590 oh         1 CUR      -0.502100
     26 C5          -2.2150    -0.3560    -4.0070 ca         1 CUR      -0.129000
     27 C6          -0.8410    -0.4570    -4.0260 ca         1 CUR      -0.104000
     28 H1          -0.3140    -0.8460     0.2740 ho         1 CUR       0.428000
     29 H3           3.1450    -0.0010     1.2270 ha         1 CUR       0.181000
     30 H4           0.3030     0.0010     2.3980 ha         1 CUR       0.139000
     31 H6           4.0640     0.0100     2.7350 ha         1 CUR       0.149000
     32 H7           5.2900     0.0120     4.8670 ha         1 CUR       0.152000
     33 H8           4.6390    -0.8230     7.3510 ho         1 CUR       0.423000
     34 H9          -0.3160    -0.8970     6.6590 h1         1 CUR       0.043700
     35 H10         -0.3230     0.8720     6.6650 h1         1 CUR       0.043700
     36 H11         -0.3920    -0.0180     8.1920 h1         1 CUR       0.043700
     37 H12          0.3400    -0.0030     4.8870 ha         1 CUR       0.145000
     38 H13          1.5680    -0.8160    -1.7270 ha         1 CUR       0.158000
     39 H14          1.5340    -0.7010    -3.2480 ha         1 CUR       0.009000
     40 H15          0.9160     1.2760    -4.6670 ha         1 CUR       0.172000
     41 H16         -0.1560     1.9980    -6.2780 ha         1 CUR       0.151000
     42 H17         -2.5350     3.9680    -7.6690 h1         1 CUR       0.043033
     43 H18         -1.3360     2.6760    -7.8200 h1         1 CUR       0.043033
     44 H19         -1.2380     3.8210    -6.4750 h1         1 CUR       0.043033
     45 H20         -4.5810    -0.0150    -5.2480 ho         1 CUR       0.414000
     46 H21         -2.7990    -1.0310    -3.3930 ha         1 CUR       0.141000
     47 H22         -0.3450    -1.2080    -3.4220 ha         1 CUR       0.124000
@<TRIPOS>BOND
     1    23    22 1
     2    25    24 1
     3    22    21 1
     4    24    26 ar
     5    24    21 ar
     6    26    27 ar
     7    21    20 ar
     8    20    19 ar
     9    27    19 ar
    10    16    15 2
    11    19    18 1
    12    18    17 2
    13    15    17 1
    14    15    14 1
    15     1     2 1
    16    14     2 2
    17     2     3 1
    18     3     4 2
    19     4     5 1
    20     5    13 ar
    21     5     6 ar
    22    13    10 ar
    23     6     7 ar
    24    10    11 1
    25    10     8 ar
    26     7     8 ar
    27    11    12 1
    28     8     9 1
    29     1    28 1
    30     3    29 1
    31     4    30 1
    32     6    31 1
    33     7    32 1
    34     9    33 1
    35    12    34 1
    36    12    35 1
    37    12    36 1
    38    13    37 1
    39    14    38 1
    40    17    39 1
    41    18    40 1
    42    20    41 1
    43    23    42 1
    44    23    43 1
    45    23    44 1
    46    25    45 1
    47    26    46 1
    48    27    47 1
@<TRIPOS>SUBSTRUCTURE
     1 CUR         1 TEMP              0 ****  ****    0 ROOT
