@<TRIPOS>MOLECULE
CUR
   47    48     1     0     0
SMALL
bcc


@<TRIPOS>ATOM
      1 O16         0.8730    0.3100    0.2970 oh        1 CUR     -0.494100
      2 C15         1.7960   -0.6690    0.0070 ce        1 CUR      0.166100
      3 C17         1.8890   -1.8430    0.8720 ce        1 CUR     -0.186000
      4 C18         1.9340   -1.8720    2.2110 cf        1 CUR     -0.066200
      5 C19         1.9350   -0.7530    3.1390 ca        1 CUR     -0.099800
      6 C24         2.5150    0.4770    2.8190 ca        1 CUR     -0.106000
      7 C23         2.5350    1.5170    3.7480 ca        1 CUR     -0.189000
      8 C22         1.9720    1.3370    5.0130 ca        1 CUR      0.119100
      9 O4'         1.9520    2.3140    5.9760 oh        1 CUR     -0.470100
     10 C21         1.3830    0.0880    5.3490 ca        1 CUR      0.098100
     11 O26         0.8500    0.0130    6.6200 os        1 CUR     -0.301900
     12 C27         0.2920   -1.2440    6.9880 c3        1 CUR      0.109700
     13 C20         1.3750   -0.9450    4.4160 ca        1 CUR     -0.161000
     14 C10         2.5310   -0.5500   -1.1220 cf        1 CUR     -0.314200
     15 C9          2.5040    0.6130   -2.0220 c         1 CUR      0.585500
     16 O2          2.5510    1.7820   -1.6240 o         1 CUR     -0.514100
     17 C8          2.5060    0.2480   -3.4530 ce        1 CUR     -0.242200
     18 C7          1.5100    0.3730   -4.3350 cf        1 CUR     -0.053200
     19 C1          0.1670    0.8910   -4.1350 ca        1 CUR     -0.071800
     20 C2         -0.5680    1.2630   -5.2790 ca        1 CUR     -0.161000
     21 C3         -1.8620    1.7600   -5.1590 ca        1 CUR      0.094100
     22 O3         -2.6640    2.1450   -6.2160 os        1 CUR     -0.304900
     23 C3O        -2.0500    2.1300   -7.4990 c3        1 CUR      0.110700
     24 C4         -2.4500    1.8870   -3.8740 ca        1 CUR      0.112100
     25 O4         -3.7320    2.3780   -3.8170 oh        1 CUR     -0.475100
     26 C5         -1.7220    1.5110   -2.7430 ca        1 CUR     -0.192000
     27 C6         -0.4240    1.0180   -2.8750 ca        1 CUR     -0.092000
     28 H1          0.5690    0.1790    1.2090 ho        1 CUR      0.432000
     29 H3          1.9410   -2.7960    0.3120 ha        1 CUR      0.145000
     30 H4          1.9820   -2.8630    2.7060 ha        1 CUR      0.133000
     31 H6          2.9640    0.6350    1.8240 ha        1 CUR      0.157000
     32 H7          2.9940    2.4810    3.4830 ha        1 CUR      0.147000
     33 H8          2.3800    3.1010    5.6050 ho        1 CUR      0.420000
     34 H9         -0.5710   -1.5020    6.3280 h1        1 CUR      0.045700
     35 H10         1.0670   -2.0480    6.9530 h1        1 CUR      0.045700
     36 H11        -0.0520   -1.0730    8.0400 h1        1 CUR      0.045700
     37 H12         0.9290   -1.9180    4.6670 ha        1 CUR      0.142000
     38 H13         3.2030   -1.3680   -1.4220 ha        1 CUR      0.150000
     39 H14         3.4720   -0.1800   -3.7780 ha        1 CUR      0.139000
     40 H15         1.7060    0.0440   -5.3760 ha        1 CUR      0.121000
     41 H16        -0.1030    1.1620   -6.2710 ha        1 CUR      0.138000
     42 H17        -1.7720    1.0880   -7.7910 h1        1 CUR      0.043033
     43 H18        -2.8520    2.5260   -8.1730 h1        1 CUR      0.043033
     44 H19        -1.1530    2.7950   -7.5200 h1        1 CUR      0.043033
     45 H20        -3.9810    2.4330   -2.8820 ho        1 CUR      0.415000
     46 H21        -2.1710    1.6100   -1.7440 ha        1 CUR      0.138000
     47 H22         0.1300    0.7370   -1.9630 ha        1 CUR      0.156000
@<TRIPOS>BOND
     1    1    2 1   
     2    1   28 1   
     3    2    3 1   
     4    2   14 2   
     5    3    4 2   
     6    3   29 1   
     7    4    5 1   
     8    4   30 1   
     9    5    6 ar  
    10    5   13 ar  
    11    6    7 ar  
    12    6   31 1   
    13    7    8 ar  
    14    7   32 1   
    15    8    9 1   
    16    8   10 ar  
    17    9   33 1   
    18   10   11 1   
    19   10   13 ar  
    20   11   12 1   
    21   12   34 1   
    22   12   35 1   
    23   12   36 1   
    24   13   37 1   
    25   14   15 1   
    26   14   38 1   
    27   15   16 2   
    28   15   17 1   
    29   17   18 2   
    30   17   39 1   
    31   18   19 1   
    32   18   40 1   
    33   19   20 ar  
    34   19   27 ar  
    35   20   21 ar  
    36   20   41 1   
    37   21   22 1   
    38   21   24 ar  
    39   22   23 1   
    40   23   42 1   
    41   23   43 1   
    42   23   44 1   
    43   24   25 1   
    44   24   26 ar  
    45   25   45 1   
    46   26   27 ar  
    47   26   46 1   
    48   27   47 1   
@<TRIPOS>SUBSTRUCTURE
     1 CUR         1 TEMP              0 ****  ****    0 ROOT
