@<TRIPOS>MOLECULE
molecule
   26    27     1     0     0
SMALL
bcc


@<TRIPOS>ATOM
      1 C10          0.0000     0.0000     0.0000 ca         1 CUT       0.158100
      2 C13          1.4130     0.0110     2.3940 ca         1 CUT      -0.180000
      3 C01          2.4180     3.5650    -3.5680 ca         1 CUT      -0.099000
      4 C02          2.9260     2.3800    -4.0720 ca         1 CUT      -0.146000
      5 C03          2.8400     1.2200    -3.3320 ca         1 CUT      -0.072500
      6 C04          2.2390     1.2410    -2.0720 ca         1 CUT      -0.168600
      7 C05          1.7290     2.4400    -1.5690 ca         1 CUT      -0.072500
      8 C06          1.8260     3.5950    -2.3170 ca         1 CUT      -0.146000
      9 C07          2.1430     0.0010    -1.2730 c          1 CUT       0.606300
     10 O08          2.6750    -1.0200    -1.6690 o          1 CUT      -0.521100
     11 C09          1.4050     0.0000     0.0000 ca         1 CUT      -0.186600
     12 C11         -0.6840     0.0050     1.2040 ca         1 CUT      -0.220000
     13 C12          0.0210     0.0110     2.4000 ca         1 CUT       0.144100
     14 C14          2.0980     0.0000     1.2150 ca         1 CUT      -0.059000
     15 O15         -0.6510     0.0210     3.5790 oh         1 CUT      -0.520100
     16 O16         -0.6830     0.0010    -1.1710 oh         1 CUT      -0.502100
     17 H131         1.9550     0.0130     3.3320 ha         1 CUT       0.146000
     18 H021         3.3900     2.3640    -5.0510 ha         1 CUT       0.133500
     19 H031         3.2380     0.2930    -3.7280 ha         1 CUT       0.145000
     20 H051         1.2630     2.4640    -0.5910 ha         1 CUT       0.145000
     21 H061         1.4300     4.5250    -1.9280 ha         1 CUT       0.133500
     22 H111        -1.7670     0.0050     1.2130 ha         1 CUT       0.150000
     23 H141         3.1820     0.0000     1.2190 ha         1 CUT       0.147000
     24 H151        -0.7510    -0.8630     3.8920 ho         1 CUT       0.425000
     25 H161        -1.3310    -0.6830    -1.1570 ho         1 CUT       0.428000
     26 H011         2.4900     4.4740    -4.1530 ha         1 CUT       0.130000
@<TRIPOS>BOND
     1    15    13 1
     2    13     2 ar
     3    13    12 ar
     4     2    14 ar
     5    12     1 ar
     6    14    11 ar
     7     1    11 ar
     8     1    16 1
     9    11     9 1
    10     8     7 ar
    11     8     3 ar
    12     7     6 ar
    13     3     4 ar
    14     9     6 1
    15     9    10 2
    16     6     5 ar
    17     4     5 ar
    18     2    17 1
    19     3    26 1
    20     4    18 1
    21     5    19 1
    22     7    20 1
    23     8    21 1
    24    12    22 1
    25    14    23 1
    26    15    24 1
    27    16    25 1
@<TRIPOS>SUBSTRUCTURE
     1 CUT         1 TEMP              0 ****  ****    0 ROOT
