@<TRIPOS>MOLECULE
molecule
  128   127     1     0     0
SMALL
bcc


@<TRIPOS>ATOM
      1 CBD          0.0000     0.0000     0.0000 c3         1 CUY      -0.082400
      2 CBE          1.5290     0.0000     0.0000 c3         1 CUY      -0.082400
      3 CBF          2.0400     0.0000     1.4430 c3         1 CUY      -0.082400
      4 CBG          3.5690    -0.0000     1.4420 c3         1 CUY      -0.082400
      5 CBH          4.0800     0.0000     2.8850 c3         1 CUY      -0.082400
      6 CBI          5.6100    -0.0000     2.8850 c3         1 CUY      -0.081400
      7 CBJ          6.1190     0.0000     4.3270 c3         1 CUY      -0.082400
      8 CBK          7.6500    -0.0000     4.3270 c3         1 CUY      -0.082400
      9 CBL          8.1590     0.0000     5.7690 c3         1 CUY      -0.081400
     10 CBM          9.6890    -0.0000     5.7700 c3         1 CUY      -0.082400
     11 CAW         10.2000     0.0000     7.2130 c3         1 CUY      -0.081400
     12 CAV         11.7300    -0.0000     7.2120 c3         1 CUY      -0.081400
     13 CAU         12.2400     0.0000     8.6540 c3         1 CUY      -0.079400
     14 CAT         13.7700    -0.0000     8.6550 c3         1 CUY      -0.080400
     15 CAS         14.2800     0.0000    10.0970 c3         1 CUY      -0.085400
     16 CAR         15.8100    -0.0000    10.0970 c3         1 CUY       0.147400
     17 OAQ         16.2940    -0.0000    11.4660 os         1 CUY      -0.433900
     18 CAP         17.6250    -0.0000    11.6410 c          1 CUY       0.630100
     19 OBO         18.3610    -0.0010    10.6830 o          1 CUY      -0.552000
     20 CAO         18.2010     0.0000    13.0340 c3         1 CUY      -0.126400
     21 CAN         19.7290    -0.0000    12.9550 c3         1 CUY      -0.072400
     22 CAM         20.3140    -0.0000    14.3680 c3         1 CUY      -0.084400
     23 CAL         21.8410    -0.0000    14.2870 c3         1 CUY      -0.080400
     24 CAK         22.4260    -0.0000    15.7010 c3         1 CUY      -0.082400
     25 CAJ         23.9540    -0.0000    15.6220 c3         1 CUY      -0.081400
     26 CAI         24.5390    -0.0000    17.0350 c3         1 CUY      -0.082400
     27 CAH         26.0680    -0.0000    16.9550 c3         1 CUY      -0.081400
     28 CAG         26.6520    -0.0000    18.3690 c3         1 CUY      -0.082400
     29 CAF         28.1800    -0.0000    18.2880 c3         1 CUY      -0.082400
     30 CAE         28.7640    -0.0000    19.7020 c3         1 CUY      -0.082400
     31 CAD         30.2920    -0.0000    19.6230 c3         1 CUY      -0.082400
     32 CAC         30.8770    -0.0000    21.0360 c3         1 CUY      -0.082400
     33 CAB         32.4050    -0.0000    20.9570 c3         1 CUY      -0.082400
     34 CAA         32.9890    -0.0000    22.3700 c3         1 CUY      -0.081400
     35 C40         34.5180    -0.0000    22.2890 c3         1 CUY      -0.084400
     36 C41         35.1030    -0.0000    23.7030 c3         1 CUY      -0.092100
     37 H1          -0.3610    -0.8840     0.5110 hc         1 CUY       0.040700
     38 H2          -0.3610     0.8840     0.5110 hc         1 CUY       0.040700
     39 H4           1.8900     0.8840    -0.5110 hc         1 CUY       0.040700
     40 H5           1.8900    -0.8840    -0.5110 hc         1 CUY       0.040700
     41 H6           1.6790     0.8850     1.9540 hc         1 CUY       0.040700
     42 H7           1.6790    -0.8850     1.9540 hc         1 CUY       0.040700
     43 H8           3.9300    -0.8850     0.9310 hc         1 CUY       0.040700
     44 H9           3.9300     0.8850     0.9310 hc         1 CUY       0.040700
     45 H10          3.7190     0.8840     3.3950 hc         1 CUY       0.040700
     46 H11          3.7190    -0.8840     3.3950 hc         1 CUY       0.040700
     47 H12          5.9710    -0.8840     2.3750 hc         1 CUY       0.040700
     48 H13          5.9710     0.8840     2.3750 hc         1 CUY       0.040700
     49 H14          5.7580     0.8850     4.8380 hc         1 CUY       0.040700
     50 H15          5.7580    -0.8850     4.8380 hc         1 CUY       0.040700
     51 H16          8.0110     0.8850     3.8160 hc         1 CUY       0.041700
     52 H17          8.0110    -0.8850     3.8160 hc         1 CUY       0.041700
     53 H18          7.7980     0.8840     6.2800 hc         1 CUY       0.040700
     54 H19          7.7980    -0.8840     6.2800 hc         1 CUY       0.040700
     55 H20         10.0510    -0.8840     5.2590 hc         1 CUY       0.041700
     56 H21         10.0510     0.8840     5.2590 hc         1 CUY       0.041700
     57 H22          9.8390    -0.8850     7.7230 hc         1 CUY       0.041700
     58 H23          9.8390     0.8850     7.7230 hc         1 CUY       0.041700
     59 H24         12.0900     0.8850     6.7010 hc         1 CUY       0.041700
     60 H25         12.0900    -0.8850     6.7010 hc         1 CUY       0.041700
     61 H26         11.8790    -0.8840     9.1650 hc         1 CUY       0.042700
     62 H27         11.8790     0.8840     9.1650 hc         1 CUY       0.042700
     63 H28         14.1310    -0.8840     8.1440 hc         1 CUY       0.044700
     64 H29         14.1310     0.8840     8.1440 hc         1 CUY       0.044700
     65 H30         13.9180    -0.8850    10.6080 hc         1 CUY       0.053700
     66 H31         13.9180     0.8850    10.6080 hc         1 CUY       0.053700
     67 H32         16.1710    -0.8850     9.5860 h1         1 CUY       0.049700
     68 H33         16.1710     0.8850     9.5860 h1         1 CUY       0.049700
     69 H34         17.8670    -0.8840    13.5630 hc         1 CUY       0.070700
     70 H35         17.8670     0.8840    13.5630 hc         1 CUY       0.070700
     71 H36         20.0630     0.8840    12.4260 hc         1 CUY       0.058700
     72 H37         20.0630    -0.8840    12.4260 hc         1 CUY       0.058700
     73 H38         19.9800    -0.8850    14.8970 hc         1 CUY       0.040700
     74 H39         19.9800     0.8850    14.8970 hc         1 CUY       0.040700
     75 H40         22.1750    -0.8850    13.7590 hc         1 CUY       0.044700
     76 H41         22.1750     0.8850    13.7590 hc         1 CUY       0.044700
     77 H42         22.0920     0.8840    16.2300 hc         1 CUY       0.040700
     78 H43         22.0920    -0.8840    16.2300 hc         1 CUY       0.040700
     79 H44         24.2880    -0.8840    15.0930 hc         1 CUY       0.041700
     80 H45         24.2880     0.8840    15.0930 hc         1 CUY       0.041700
     81 H46         24.2050    -0.8850    17.5640 hc         1 CUY       0.040700
     82 H47         24.2050     0.8850    17.5640 hc         1 CUY       0.040700
     83 H48         26.4010    -0.8850    16.4260 hc         1 CUY       0.041700
     84 H49         26.3190    -0.8850    18.8980 hc         1 CUY       0.040700
     85 H50         28.5130    -0.8850    17.7600 hc         1 CUY       0.041700
     86 H51         28.5130     0.8850    17.7600 hc         1 CUY       0.041700
     87 H52         28.4300    -0.8840    20.2310 hc         1 CUY       0.040700
     88 H53         28.4300     0.8840    20.2310 hc         1 CUY       0.040700
     89 H54         30.6260    -0.8840    19.0940 hc         1 CUY       0.040700
     90 H55         30.6260     0.8840    19.0940 hc         1 CUY       0.040700
     91 H56         30.5430    -0.8840    21.5650 hc         1 CUY       0.040700
     92 H57         30.5430     0.8840    21.5650 hc         1 CUY       0.040700
     93 H58         32.7390    -0.8850    20.4280 hc         1 CUY       0.040700
     94 H59         32.7390     0.8850    20.4280 hc         1 CUY       0.040700
     95 H60         32.6550    -0.8850    22.8990 hc         1 CUY       0.040700
     96 H61         32.6550     0.8850    22.8990 hc         1 CUY       0.040700
     97 H62         34.8520     0.8850    21.7610 hc         1 CUY       0.039700
     98 H63         34.8520    -0.8850    21.7610 hc         1 CUY       0.039700
     99 H64         36.1850    -0.0000    23.6460 hc         1 CUY       0.032367
    100 H65         34.7690     0.8850    24.2320 hc         1 CUY       0.032367
    101 H66         34.7690    -0.8850    24.2320 hc         1 CUY       0.032367
    102 C1          -0.5100     0.0000    -1.4430 c3         1 CUY      -0.082400
    103 C2          -2.0410    -0.0000    -1.4420 c3         1 CUY      -0.082400
    104 C3          -2.5510     0.0000    -2.8850 c3         1 CUY      -0.082400
    105 C4          -4.0810     0.0000    -2.8850 c3         1 CUY      -0.081400
    106 C5          -4.5900     0.0000    -4.3270 c3         1 CUY      -0.082400
    107 C6          -6.1210    -0.0000    -4.3270 c3         1 CUY      -0.081400
    108 C7          -6.6310     0.0000    -5.7700 c3         1 CUY      -0.084400
    109 C8          -8.1600     0.0000    -5.7700 c3         1 CUY      -0.092100
    110 H3          26.4010     0.8850    16.4260 hc         1 CUY       0.041700
    111 H67         26.3190     0.8850    18.8980 hc         1 CUY       0.040700
    112 H68         -0.1490     0.8850    -1.9530 hc         1 CUY       0.040700
    113 H69         -0.1490    -0.8850    -1.9530 hc         1 CUY       0.040700
    114 H70         -2.4020     0.8850    -0.9320 hc         1 CUY       0.040700
    115 H71         -2.4020    -0.8850    -0.9320 hc         1 CUY       0.040700
    116 H72         -2.1890    -0.8840    -3.3950 hc         1 CUY       0.040700
    117 H73         -2.1890     0.8840    -3.3950 hc         1 CUY       0.040700
    118 H74         -4.4420     0.8840    -2.3750 hc         1 CUY       0.040700
    119 H75         -4.4420    -0.8840    -2.3750 hc         1 CUY       0.040700
    120 H76         -4.2290    -0.8850    -4.8380 hc         1 CUY       0.040700
    121 H77         -4.2290     0.8850    -4.8380 hc         1 CUY       0.040700
    122 H78         -6.4820    -0.8850    -3.8160 hc         1 CUY       0.040700
    123 H79         -6.4820     0.8850    -3.8160 hc         1 CUY       0.040700
    124 H80         -6.2700     0.8840    -6.2810 hc         1 CUY       0.039700
    125 H81         -6.2700    -0.8840    -6.2810 hc         1 CUY       0.039700
    126 H82         -8.5210     0.8850    -5.2590 hc         1 CUY       0.032367
    127 H83         -8.5210    -0.8850    -5.2590 hc         1 CUY       0.032367
    128 H84         -8.5210     0.0000    -6.7910 hc         1 CUY       0.032367
@<TRIPOS>BOND
     1    26    25 1
     2    26    27 1
     3    25    24 1
     4    27    28 1
     5    24    23 1
     6    28    29 1
     7    23    22 1
     8    29    30 1
     9    22    21 1
    10    30    31 1
    11    31    32 1
    12    21    20 1
    13    32    33 1
    14    33    34 1
    15    20    18 1
    16    34    35 1
    17    19    18 2
    18    18    17 1
    19    35    36 1
    20    17    16 1
    21    16    15 1
    22    15    14 1
    23    14    13 1
    24    13    12 1
    25    12    11 1
    26    11    10 1
    27    10     9 1
    28     9     8 1
    29     8     7 1
    30     7     6 1
    31     6     5 1
    32     5     4 1
    33     4     3 1
    34     3     2 1
    35     2     1 1
    36     1    37 1
    37     1    38 1
    38     2    39 1
    39     2    40 1
    40     3    41 1
    41     3    42 1
    42     4    43 1
    43     4    44 1
    44     5    45 1
    45     5    46 1
    46     6    47 1
    47     6    48 1
    48     7    49 1
    49     7    50 1
    50     8    51 1
    51     8    52 1
    52     9    53 1
    53     9    54 1
    54    10    55 1
    55    10    56 1
    56    11    57 1
    57    11    58 1
    58    12    59 1
    59    12    60 1
    60    13    61 1
    61    13    62 1
    62    14    63 1
    63    14    64 1
    64    15    65 1
    65    15    66 1
    66    16    67 1
    67    16    68 1
    68    20    69 1
    69    20    70 1
    70    21    71 1
    71    21    72 1
    72    22    73 1
    73    22    74 1
    74    23    75 1
    75    23    76 1
    76    24    77 1
    77    24    78 1
    78    25    79 1
    79    25    80 1
    80    26    81 1
    81    26    82 1
    82    27    83 1
    83    28    84 1
    84    29    85 1
    85    29    86 1
    86    30    87 1
    87    30    88 1
    88    31    89 1
    89    31    90 1
    90    32    91 1
    91    32    92 1
    92    33    93 1
    93    33    94 1
    94    34    95 1
    95    34    96 1
    96    35    97 1
    97    35    98 1
    98    36    99 1
    99    36   100 1
   100    36   101 1
   101     1   102 1
   102   102   103 1
   103   103   104 1
   104   104   105 1
   105   105   106 1
   106   106   107 1
   107   107   108 1
   108   108   109 1
   109    27   110 1
   110    28   111 1
   111   102   112 1
   112   102   113 1
   113   103   114 1
   114   103   115 1
   115   104   116 1
   116   104   117 1
   117   105   118 1
   118   105   119 1
   119   106   120 1
   120   106   121 1
   121   107   122 1
   122   107   123 1
   123   108   124 1
   124   108   125 1
   125   109   126 1
   126   109   127 1
   127   109   128 1
@<TRIPOS>SUBSTRUCTURE
     1 CUY         1 TEMP              0 ****  ****    0 ROOT
