@<TRIPOS>MOLECULE
molecule
   45    47     1     0     0
SMALL
bcc


@<TRIPOS>ATOM
      1 C10          0.0000     0.0000     0.0000 ca         1 CV4       0.127600
      2 C13         -0.9930     0.8490    -3.4460 ca         1 CV4      -0.500600
      3 C17         -0.8290     1.8880    -8.0580 ca         1 CV4      -0.149000
      4 C20          0.7700     4.1180    -7.6800 ca         1 CV4      -0.066500
      5 C21          0.1850     3.5010    -6.5910 ca         1 CV4      -0.149000
      6 C22          1.1900     4.3040   -10.1400 c3         1 CV4       0.676200
      7 C01          0.0400    -2.4290     4.6730 c3         1 CV4       0.223100
      8 N02         -1.1080    -1.5780     4.3560 n7         1 CV4      -0.917100
      9 S03         -0.8730     0.0040     3.9270 sy         1 CV4       1.424200
     10 O04         -2.1590     0.5420     3.6520 o          1 CV4      -0.635800
     11 O05          0.0090     0.5560     4.8960 o          1 CV4      -0.635800
     12 C06          0.0030     0.0060     2.3980 ca         1 CV4      -0.298500
     13 C07          1.3870     0.0120     2.3950 ca         1 CV4      -0.047000
     14 C08          2.0780     0.0000     1.1970 ca         1 CV4      -0.139000
     15 C09          1.3890     0.0000     0.0000 ca         1 CV4      -0.067000
     16 N11         -0.7000    -0.0060    -1.2100 nu         1 CV4      -0.767300
     17 C12         -0.2380     0.7420    -2.2820 ca         1 CV4       0.753200
     18 C14         -0.4860     1.6120    -4.4930 ca         1 CV4       0.751200
     19 N15         -1.1980     1.7460    -5.6770 nu         1 CV4      -0.770300
     20 C16         -0.6130     2.3790    -6.7770 ca         1 CV4       0.179600
     21 C18         -0.2460     2.5130    -9.1430 ca         1 CV4      -0.066500
     22 C19          0.5540     3.6260    -8.9550 ca         1 CV4      -0.200300
     23 F23          0.3290     5.2930   -10.6280 f          1 CV4      -0.224967
     24 F24          2.3980     4.8890    -9.7500 f          1 CV4      -0.224967
     25 F25          1.4300     3.3600   -11.1440 f          1 CV4      -0.224967
     26 N26          0.6940     2.2120    -4.3440 nb         1 CV4      -0.833000
     27 C27          1.3770     2.0890    -3.2230 ca         1 CV4       0.756900
     28 N28          0.9350     1.3690    -2.2130 nb         1 CV4      -0.835000
     29 C29         -0.6910    -0.0000     1.2060 ca         1 CV4      -0.060000
     30 H1          -2.0370     0.5600    -3.4430 ha         1 CV4       0.142000
     31 H2          -1.4530     1.0150    -8.2060 ha         1 CV4       0.155000
     32 H3           1.3930     4.9920    -7.5360 ha         1 CV4       0.148000
     33 H4           0.3550     3.8860    -5.5930 ha         1 CV4       0.155000
     34 H5           0.4110    -2.8880     3.7640 h1         1 CV4       0.042700
     35 H6          -0.2640    -3.2010     5.3690 h1         1 CV4       0.042700
     36 H7           0.8230    -1.8280     5.1200 h1         1 CV4       0.042700
     37 H8          -2.0370    -1.9420     4.4320 hn         1 CV4       0.454800
     38 H9           1.9290     0.0120     3.3330 ha         1 CV4       0.149000
     39 H10          3.1610     0.0030     1.1980 ha         1 CV4       0.140000
     40 H11          1.9320    -0.0100    -0.9380 ha         1 CV4       0.167000
     41 H12         -1.5220    -0.5670    -1.3090 hn         1 CV4       0.460800
     42 H13         -2.1410     1.4150    -5.7340 hn         1 CV4       0.460800
     43 H14         -0.4140     2.1300   -10.1420 ha         1 CV4       0.148000
     44 H15          2.3350     2.5880    -3.1340 h5         1 CV4       0.063100
     45 H16         -1.7740    -0.0000     1.2090 ha         1 CV4       0.150000
@<TRIPOS>BOND
     1    14    13 ar
     2    14    15 ar
     3    13    12 ar
     4    15     1 ar
     5     7     8 1
     6    10     9 2
     7    12     9 1
     8    12    29 ar
     9     1    29 ar
    10     1    16 1
    11     9     8 1
    12     9    11 2
    13    24     6 1
    14    16    17 1
    15    21     3 ar
    16    21    22 ar
    17    25     6 1
    18    17     2 ar
    19    17    28 ar
    20     6    22 1
    21     6    23 1
    22     3    20 ar
    23     2    18 ar
    24    22     4 ar
    25    28    27 ar
    26    20    19 1
    27    20     5 ar
    28    18    19 1
    29    18    26 ar
    30    27    26 ar
    31     4     5 ar
    32     2    30 1
    33     3    31 1
    34     4    32 1
    35     5    33 1
    36     7    34 1
    37     7    35 1
    38     7    36 1
    39     8    37 1
    40    13    38 1
    41    14    39 1
    42    15    40 1
    43    16    41 1
    44    19    42 1
    45    21    43 1
    46    27    44 1
    47    29    45 1
@<TRIPOS>SUBSTRUCTURE
     1 CV4         1 TEMP              0 ****  ****    0 ROOT
