@<TRIPOS>MOLECULE
CV4
   45    47     1     0     0
SMALL
bcc


@<TRIPOS>ATOM
      1 C10          0.0000     0.0000     0.0000 ca         1 CV4      -0.039400
      2 C13         -0.9930     0.8490    -3.4460 ca         1 CV4      -0.496600
      3 C17         -0.8290     1.8880    -8.0580 ca         1 CV4      -0.127500
      4 C20          0.7700     4.1180    -7.6800 ca         1 CV4      -0.023500
      5 C21          0.1850     3.5010    -6.5910 ca         1 CV4      -0.127500
      6 C22          1.1900     4.3040   -10.1400 c3         1 CV4       0.642200
      7 C01          0.0400    -2.4290     4.6730 c3         1 CV4       0.262100
      8 N02         -1.1080    -1.5780     4.3560 n7         1 CV4      -0.581100
      9 S03         -0.8730     0.0040     3.9270 sy         1 CV4       1.041200
     10 O04         -2.1590     0.5420     3.6520 o          1 CV4      -0.587300
     11 O05          0.0090     0.5560     4.8960 o          1 CV4      -0.587300
     12 C06          0.0030     0.0060     2.3980 ca         1 CV4      -0.142500
     13 C07          1.3870     0.0120     2.3950 ca         1 CV4      -0.012000
     14 C08          2.0780     0.0000     1.1970 ca         1 CV4      -0.116000
     15 C09          1.3890     0.0000     0.0000 ca         1 CV4      -0.048000
     16 N11         -0.7000    -0.0060    -1.2100 nu         1 CV4      -0.297300
     17 C12         -0.2380     0.7420    -2.2820 ca         1 CV4       0.567200
     18 C14         -0.4860     1.6120    -4.4930 ca         1 CV4       0.566200
     19 N15         -1.1980     1.7460    -5.6770 nu         1 CV4      -0.304300
     20 C16         -0.6130     2.3790    -6.7770 ca         1 CV4       0.028600
     21 C18         -0.2460     2.5130    -9.1430 ca         1 CV4      -0.023500
     22 C19          0.5540     3.6260    -8.9550 ca         1 CV4      -0.230300
     23 F23          0.3290     5.2930   -10.6280 f          1 CV4      -0.209633
     24 F24          2.3980     4.8890    -9.7500 f          1 CV4      -0.209633
     25 F25          1.4300     3.3600   -11.1440 f          1 CV4      -0.209633
     26 N26          0.6940     2.2120    -4.3440 nb         1 CV4      -0.739000
     27 C27          1.3770     2.0890    -3.2230 ca         1 CV4       0.718900
     28 N28          0.9350     1.3690    -2.2130 nb         1 CV4      -0.740000
     29 C29         -0.6910    -0.0000     1.2060 ca         1 CV4      -0.024000
     30 H1          -2.0370     0.5600    -3.4430 ha         1 CV4       0.130000
     31 H2          -1.4530     1.0150    -8.2060 ha         1 CV4       0.130000
     32 H3           1.3930     4.9920    -7.5360 ha         1 CV4       0.117000
     33 H4           0.3550     3.8860    -5.5930 ha         1 CV4       0.130000
     34 H5           0.4110    -2.8880     3.7640 h1         1 CV4       0.001367
     35 H6          -0.2640    -3.2010     5.3690 h1         1 CV4       0.001367
     36 H7           0.8230    -1.8280     5.1200 h1         1 CV4       0.001367
     37 H8          -2.0370    -1.9420     4.4320 hn         1 CV4       0.346800
     38 H9           1.9290     0.0120     3.3330 ha         1 CV4       0.123000
     39 H10          3.1610     0.0030     1.1980 ha         1 CV4       0.110000
     40 H11          1.9320    -0.0100    -0.9380 ha         1 CV4       0.140000
     41 H12         -1.5220    -0.5670    -1.3090 hn         1 CV4       0.288800
     42 H13         -2.1410     1.4150    -5.7340 hn         1 CV4       0.290800
     43 H14         -0.4140     2.1300   -10.1420 ha         1 CV4       0.117000
     44 H15          2.3350     2.5880    -3.1340 h5         1 CV4      -0.002900
     45 H16         -1.7740    -0.0000     1.2090 ha         1 CV4       0.124000
@<TRIPOS>BOND
     1     1    15 ar  
     2     1    16 1   
     3     1    29 ar  
     4     2    17 ar  
     5     2    18 ar  
     6     2    30 1   
     7     3    20 ar  
     8     3    21 ar  
     9     3    31 1   
    10     4     5 ar  
    11     4    22 ar  
    12     4    32 1   
    13     5    20 ar  
    14     5    33 1   
    15     6    22 1   
    16     6    23 1   
    17     6    24 1   
    18     6    25 1   
    19     7     8 1   
    20     7    34 1   
    21     7    35 1   
    22     7    36 1   
    23     8     9 1   
    24     8    37 1   
    25     9    10 2   
    26     9    11 2   
    27     9    12 1   
    28    12    13 ar  
    29    12    29 ar  
    30    13    14 ar  
    31    13    38 1   
    32    14    15 ar  
    33    14    39 1   
    34    15    40 1   
    35    16    17 1   
    36    16    41 1   
    37    17    28 ar  
    38    18    19 1   
    39    18    26 ar  
    40    19    20 1   
    41    19    42 1   
    42    21    22 ar  
    43    21    43 1   
    44    26    27 ar  
    45    27    28 ar  
    46    27    44 1   
    47    29    45 1   
@<TRIPOS>SUBSTRUCTURE
     1 CV4         1 TEMP              0 ****  ****    0 ROOT
