@<TRIPOS>MOLECULE
CV7
   72    77     1     0     0
SMALL
bcc


@<TRIPOS>ATOM
      1 C1          1.7430    0.4010   -0.2650 c3        1 CV7     -0.112100
      2 C2          0.2300    0.2600   -0.1980 c3        1 CV7     -0.029000
      3 C3         -0.2500    0.2820    1.2420 c3        1 CV7     -0.101400
      4 C4          0.1930   -0.9660    2.0180 c3        1 CV7      0.151100
      5 C6         -0.1190   -2.2830    1.2880 c3        1 CV7     -0.034700
      6 C8          0.3170   -2.2740   -0.1860 c3        1 CV7     -0.046700
      7 C10        -0.2920   -1.0480   -0.8350 c3        1 CV7     -0.071700
      8 C12        -0.1470   -0.8370   -2.3350 c3        1 CV7     -0.081400
      9 C13        -0.5100    0.6410   -2.5320 c3        1 CV7      0.132100
     10 C15        -0.3850    1.3370   -1.1370 c3        1 CV7      0.030800
     11 O16        -1.7390    1.6290   -0.7680 os        1 CV7     -0.430600
     12 C17        -2.5640    1.6050   -1.9410 c3        1 CV7      0.337900
     13 O19        -1.8970    0.7570   -2.8740 os        1 CV7     -0.432600
     14 C20        -3.9630    1.0930   -1.5950 c3        1 CV7     -0.063700
     15 C21        -4.8430    1.1800   -2.8330 c3        1 CV7     -0.072900
     16 C22        -6.2420    0.6770   -2.5450 c3        1 CV7     -0.075900
     17 C23        -6.2180   -0.7340   -1.9930 c3        1 CV7     -0.077400
     18 C24        -5.3410   -0.8240   -0.7610 c3        1 CV7     -0.075900
     19 C25        -3.9410   -0.3210   -1.0400 c3        1 CV7     -0.072900
     20 C26         0.4100    2.6280   -1.1660 c         1 CV7      0.536100
     21 O27         1.3030    2.8360   -1.9920 o         1 CV7     -0.523100
     22 C28         0.0250    3.6660   -0.1410 c3        1 CV7      0.042400
     23 O29         1.0460    4.6110    0.0870 oh        1 CV7     -0.588800
     24 C30        -0.1600   -3.5290   -0.9010 c3        1 CV7     -0.072400
     25 C31         0.2810   -4.7880   -0.1830 c3        1 CV7     -0.053200
     26 C32        -0.1240   -4.7430    1.2500 c2        1 CV7     -0.043400
     27 C33        -0.8950   -5.6990    1.7940 ce        1 CV7     -0.251200
     28 C34        -1.3410   -5.6630    3.1940 c         1 CV7      0.561500
     29 O35        -2.0440   -6.5550    3.6880 o         1 CV7     -0.535100
     30 C36        -0.8990   -4.4910    3.9670 ce        1 CV7     -0.245200
     31 C37        -0.1280   -3.5380    3.4330 c2        1 CV7     -0.101200
     32 C38         0.3850   -3.5490    2.0220 c3        1 CV7      0.013400
     33 C39         1.9110   -3.6400    2.1020 c3        1 CV7     -0.076100
     34 O40         1.5760   -0.9250    2.3440 oh        1 CV7     -0.602800
     35 H11C        2.0590    1.3490    0.2360 hc        1 CV7      0.054033
     36 H12C        2.2490   -0.4490    0.2520 hc        1 CV7      0.054033
     37 H13C        2.0860    0.4320   -1.3290 hc        1 CV7      0.054033
     38 H31C        0.1400    1.1940    1.7640 hc        1 CV7      0.060200
     39 H32C       -1.3710    0.3370    1.2540 hc        1 CV7      0.060200
     40 H10        -1.4080   -1.0850   -0.6350 hc        1 CV7      0.064700
     41 H4         -0.3850   -0.9640    2.9920 h1        1 CV7      0.034700
     42 H6         -1.2490   -2.3520    1.2940 hc        1 CV7      0.058700
     43 H40         1.7880   -0.0150    2.5830 ho        1 CV7      0.404000
     44 H8          1.4380   -2.2260   -0.2460 hc        1 CV7      0.069700
     45 H301       -1.2800   -3.5150   -0.9770 hc        1 CV7      0.048700
     46 H302        0.2470   -3.5320   -1.9460 hc        1 CV7      0.048700
     47 H121       -0.8420   -1.4960   -2.9110 hc        1 CV7      0.066200
     48 H122        0.8980   -1.0260   -2.6810 hc        1 CV7      0.066200
     49 H13         0.0890    1.1410   -3.3330 h1        1 CV7      0.093700
     50 H17        -2.6110    2.6460   -2.3720 h2        1 CV7      0.047700
     51 H20        -4.3690    1.7830   -0.8020 hc        1 CV7      0.063700
     52 H211       -4.8910    2.2430   -3.1870 hc        1 CV7      0.048700
     53 H212       -4.3790    0.5700   -3.6530 hc        1 CV7      0.048700
     54 H251       -3.3390   -0.3310   -0.0930 hc        1 CV7      0.048700
     55 H252       -3.4310   -0.9950   -1.7790 hc        1 CV7      0.048700
     56 H221       -6.7400    1.3590   -1.8060 hc        1 CV7      0.040950
     57 H222       -6.8470    0.7020   -3.4880 hc        1 CV7      0.040950
     58 H231       -7.2610   -1.0550   -1.7370 hc        1 CV7      0.042200
     59 H232       -5.8320   -1.4350   -2.7790 hc        1 CV7      0.042200
     60 H241       -5.2910   -1.8880   -0.4120 hc        1 CV7      0.040950
     61 H242       -5.7980   -0.2190    0.0670 hc        1 CV7      0.040950
     62 H281       -0.9140    4.1760   -0.4940 h1        1 CV7      0.077700
     63 H282       -0.1690    3.1840    0.8550 h1        1 CV7      0.077700
     64 H29         1.4100    4.8640   -0.7730 ho        1 CV7      0.418000
     65 H311       -0.1640   -5.6830   -0.6930 hc        1 CV7      0.058200
     66 H312        1.3990   -4.8900   -0.2420 hc        1 CV7      0.058200
     67 H33        -1.2430   -6.5650    1.2070 ha        1 CV7      0.150000
     68 H36        -1.2360   -4.4510    5.0150 ha        1 CV7      0.150000
     69 H37         0.2180   -2.6810    4.0380 ha        1 CV7      0.137000
     70 H391        2.2120   -4.6750    2.3940 hc        1 CV7      0.049367
     71 H392        2.3050   -2.9240    2.8640 hc        1 CV7      0.049367
     72 H393        2.3750   -3.3940    1.1190 hc        1 CV7      0.049367
@<TRIPOS>BOND
     1    1    2 1   
     2    1   35 1   
     3    1   36 1   
     4    1   37 1   
     5    2    3 1   
     6    2    7 1   
     7    2   10 1   
     8    3    4 1   
     9    3   38 1   
    10    3   39 1   
    11    4    5 1   
    12    4   34 1   
    13    4   41 1   
    14    5    6 1   
    15    5   32 1   
    16    5   42 1   
    17    6    7 1   
    18    6   24 1   
    19    6   44 1   
    20    7    8 1   
    21    7   40 1   
    22    8    9 1   
    23    8   47 1   
    24    8   48 1   
    25    9   10 1   
    26    9   13 1   
    27    9   49 1   
    28   10   11 1   
    29   10   20 1   
    30   11   12 1   
    31   12   13 1   
    32   12   14 1   
    33   12   50 1   
    34   14   15 1   
    35   14   19 1   
    36   14   51 1   
    37   15   16 1   
    38   15   52 1   
    39   15   53 1   
    40   16   17 1   
    41   16   56 1   
    42   16   57 1   
    43   17   18 1   
    44   17   58 1   
    45   17   59 1   
    46   18   19 1   
    47   18   60 1   
    48   18   61 1   
    49   19   54 1   
    50   19   55 1   
    51   20   21 2   
    52   20   22 1   
    53   22   23 1   
    54   22   62 1   
    55   22   63 1   
    56   23   64 1   
    57   24   25 1   
    58   24   45 1   
    59   24   46 1   
    60   25   26 1   
    61   25   65 1   
    62   25   66 1   
    63   26   27 2   
    64   26   32 1   
    65   27   28 1   
    66   27   67 1   
    67   28   29 2   
    68   28   30 1   
    69   30   31 2   
    70   30   68 1   
    71   31   32 1   
    72   31   69 1   
    73   32   33 1   
    74   33   70 1   
    75   33   71 1   
    76   33   72 1   
    77   34   43 1   
@<TRIPOS>SUBSTRUCTURE
     1 CV7         1 TEMP              0 ****  ****    0 ROOT
