@<TRIPOS>MOLECULE
molecule
   72    77     1     0     0
SMALL
bcc


@<TRIPOS>ATOM
      1 C1           1.5300     0.0000     0.0000 c3         1 CV7      -0.081100
      2 C2           0.0000     0.0000     0.0000 c3         1 CV7      -0.047000
      3 C3          -0.5150     0.0000     1.4270 c3         1 CV7      -0.083400
      4 C4           0.1310    -1.1960     2.1440 c3         1 CV7       0.146100
      5 C6          -0.1810    -2.5120     1.4350 c3         1 CV7      -0.037700
      6 C8           0.2150    -2.4620    -0.0490 c3         1 CV7      -0.063700
      7 C10         -0.5250    -1.2940    -0.6770 c3         1 CV7      -0.067700
      8 C12         -0.2070    -1.0250    -2.1520 c3         1 CV7      -0.073400
      9 C13         -0.5960     0.4680    -2.3280 c3         1 CV7       0.121100
     10 C15         -0.5160     1.1090    -0.9080 c3         1 CV7       0.021800
     11 O16         -1.8810     1.4300    -0.5760 os         1 CV7      -0.405600
     12 C17         -2.5390     1.5860    -1.8510 c3         1 CV7       0.314900
     13 O19         -1.9950     0.5250    -2.6740 os         1 CV7      -0.413600
     14 C20         -4.0510     1.4140    -1.6950 c3         1 CV7      -0.059700
     15 C21         -4.7270     1.5840    -3.0570 c3         1 CV7      -0.073400
     16 C22         -6.2390     1.4120    -2.9010 c3         1 CV7      -0.079400
     17 C23         -6.5400     0.0150    -2.3520 c3         1 CV7      -0.080400
     18 C24         -5.8650    -0.1540    -0.9900 c3         1 CV7      -0.079400
     19 C25         -4.3520     0.0170    -1.1460 c3         1 CV7      -0.073400
     20 C26          0.3840     2.3170    -0.8820 c          1 CV7       0.558100
     21 O27          1.5770     2.1790    -0.7590 o          1 CV7      -0.471100
     22 C28         -0.2050     3.6990    -1.0090 c3         1 CV7       0.041400
     23 O29          0.8420     4.6700    -0.9580 oh         1 CV7      -0.585800
     24 C30         -0.1970    -3.7660    -0.7350 c3         1 CV7      -0.075400
     25 C31          0.5790    -4.9380    -0.1230 c3         1 CV7      -0.048200
     26 C32          0.3410    -4.9290     1.3750 c2         1 CV7      -0.047400
     27 C33         -0.0680    -6.0430     1.9670 ce         1 CV7      -0.251200
     28 C34         -0.3300    -6.0680     3.4150 c          1 CV7       0.564500
     29 O35         -0.6680    -7.0970     3.9680 o          1 CV7      -0.529100
     30 C36         -0.1760    -4.8180     4.1780 ce         1 CV7      -0.240200
     31 C37          0.2400    -3.7200     3.5670 c2         1 CV7      -0.104200
     32 C38          0.5840    -3.6490     2.1180 c3         1 CV7      -0.000600
     33 C39          2.0770    -3.3300     2.0240 c3         1 CV7      -0.074100
     34 O40          1.5480    -1.0100     2.1800 oh         1 CV7      -0.600800
     35 H11C         1.8910     0.2250    -0.9960 hc         1 CV7       0.054367
     36 H12C         1.8910     0.7500     0.6930 hc         1 CV7       0.054367
     37 H13C         1.8910    -0.9750     0.3030 hc         1 CV7       0.054367
     38 H31C        -1.5930    -0.1090     1.4300 hc         1 CV7       0.057200
     39 H32C        -0.2300     0.9210     1.9210 hc         1 CV7       0.057200
     40 H10         -1.5940    -1.3930    -0.5290 hc         1 CV7       0.071700
     41 H4          -0.2490    -1.2450     3.1580 h1         1 CV7       0.033700
     42 H6          -1.2440    -2.7070     1.5100 hc         1 CV7       0.066700
     43 H40          1.7760    -0.4750     2.9220 ho         1 CV7       0.396000
     44 H8           1.2840    -2.3150    -0.1420 hc         1 CV7       0.084700
     45 H301         0.0260    -3.7020    -1.7930 hc         1 CV7       0.048700
     46 H302        -1.2590    -3.9270    -0.5940 hc         1 CV7       0.048700
     47 H121        -0.8120    -1.6550    -2.7930 hc         1 CV7       0.065200
     48 H122         0.8480    -1.1690    -2.3470 hc         1 CV7       0.065200
     49 H13          0.0300     0.9790    -3.0490 h1         1 CV7       0.072700
     50 H17         -2.3050     2.5520    -2.2800 h2         1 CV7       0.041700
     51 H20         -4.4350     2.1590    -1.0090 hc         1 CV7       0.065700
     52 H211        -4.3490     0.8350    -3.7420 hc         1 CV7       0.050950
     53 H212        -4.5160     2.5740    -3.4420 hc         1 CV7       0.050950
     54 H251        -3.8750    -0.1000    -0.1810 hc         1 CV7       0.050950
     55 H252        -3.9750    -0.7290    -1.8350 hc         1 CV7       0.050950
     56 H221        -6.7160     1.5290    -3.8660 hc         1 CV7       0.041700
     57 H222        -6.6170     2.1580    -2.2120 hc         1 CV7       0.041700
     58 H231        -6.1580    -0.7310    -3.0390 hc         1 CV7       0.043200
     59 H232        -7.6110    -0.1040    -2.2400 hc         1 CV7       0.043200
     60 H241        -6.2430     0.5950    -0.3050 hc         1 CV7       0.041700
     61 H242        -6.0770    -1.1440    -0.6040 hc         1 CV7       0.041700
     62 H281        -0.8980     3.8720    -0.1950 h1         1 CV7       0.047200
     63 H282        -0.7290     3.7820    -1.9540 h1         1 CV7       0.047200
     64 H29          0.4730     5.5340    -1.0370 ho         1 CV7       0.405000
     65 H311         0.2230    -5.8700    -0.5440 hc         1 CV7       0.057200
     66 H312         1.6370    -4.8190    -0.3250 hc         1 CV7       0.057200
     67 H33         -0.2090    -6.9430     1.3800 ha         1 CV7       0.151000
     68 H36         -0.3630    -4.8080     5.2450 ha         1 CV7       0.150000
     69 H37          0.3430    -2.8180     4.1580 ha         1 CV7       0.125000
     70 H391         2.2980    -2.9220     1.0450 hc         1 CV7       0.048700
     71 H392         2.3400    -2.6050     2.7850 hc         1 CV7       0.048700
     72 H393         2.6510    -4.2360     2.1750 hc         1 CV7       0.048700
@<TRIPOS>BOND
     1     1     2 1
     2     2     3 1
     3     2     7 1
     4     2    10 1
     5     3     4 1
     6     4     5 1
     7     4    34 1
     8     5     6 1
     9     5    32 1
    10     6     7 1
    11     6    24 1
    12     7     8 1
    13     8     9 1
    14     9    10 1
    15     9    13 1
    16    10    11 1
    17    10    20 1
    18    11    12 1
    19    12    13 1
    20    12    14 1
    21    14    15 1
    22    14    19 1
    23    15    16 1
    24    16    17 1
    25    17    18 1
    26    18    19 1
    27    20    21 2
    28    20    22 1
    29    22    23 1
    30    24    25 1
    31    25    26 1
    32    26    27 2
    33    26    32 1
    34    27    28 1
    35    28    29 2
    36    28    30 1
    37    30    31 2
    38    31    32 1
    39    32    33 1
    40     1    35 1
    41     1    36 1
    42     1    37 1
    43     3    38 1
    44     3    39 1
    45     7    40 1
    46     4    41 1
    47     5    42 1
    48    34    43 1
    49     6    44 1
    50    24    45 1
    51    24    46 1
    52     8    47 1
    53     8    48 1
    54     9    49 1
    55    12    50 1
    56    14    51 1
    57    15    52 1
    58    15    53 1
    59    19    54 1
    60    19    55 1
    61    16    56 1
    62    16    57 1
    63    17    58 1
    64    17    59 1
    65    18    60 1
    66    18    61 1
    67    22    62 1
    68    22    63 1
    69    23    64 1
    70    25    65 1
    71    25    66 1
    72    27    67 1
    73    30    68 1
    74    31    69 1
    75    33    70 1
    76    33    71 1
    77    33    72 1
@<TRIPOS>SUBSTRUCTURE
     1 CV7         1 TEMP              0 ****  ****    0 ROOT
