@<TRIPOS>MOLECULE
CV8
   58    61     1     0     0
SMALL
bcc


@<TRIPOS>ATOM
      1 C10          0.0000     0.0000     0.0000 c3         1 CV8      -0.120500
      2 C13          1.9270     0.0000     1.4950 c3         1 CV8      -0.120500
      3 C15          3.6220    -4.3360    -2.8780 c3         1 CV8       0.051000
      4 C17          5.8630    -0.9870    -2.2420 c2         1 CV8      -0.080000
      5 C20         13.5240     2.4130    -5.2180 c3         1 CV8      -0.113000
      6 C21         13.7400     6.7850    -3.1890 c3         1 CV8      -0.113000
      7 C01         12.7880     5.6160    -3.4510 c3         1 CV8       0.054000
      8 C02         12.2410     5.0920    -2.1180 c3         1 CV8      -0.104000
      9 N01         11.4820     3.8590    -2.3810 n          1 CV8      -0.020000
     10 C03         10.2310     3.7000    -1.9040 c2         1 CV8       0.225000
     11 C04          9.4740     2.4280    -2.1850 c3         1 CV8       0.037000
     12 O01          8.1830     2.4990    -1.5780 os         1 CV8      -0.141000
     13 N02          7.3860     1.3460    -1.7840 n2         1 CV8       0.043000
     14 C06          5.3630     0.0860    -1.4990 c3         1 CV8      -0.157000
     15 C07          4.0760     0.0200    -0.9610 c2         1 CV8      -0.094000
     16 C08          3.3020    -1.1070    -1.1660 c2         1 CV8       0.054000
     17 O02          2.0480    -1.1750    -0.6420 os         1 CV8      -0.164000
     18 C09          1.5490     0.0000     0.0000 c3         1 CV8       0.045000
     19 C11         -0.3420     0.9300     1.1910 c3         1 CV8      -0.100000
     20 C12          0.7260     0.5920     2.2530 c3         1 CV8      -0.100000
     21 C14          3.8060    -2.1730    -1.9080 c2         1 CV8       0.114000
     22 O03          3.0440    -3.2810    -2.1080 os         1 CV8      -0.169000
     23 C16          5.0850    -2.1070    -2.4430 c2         1 CV8      -0.200000
     24 O04          9.7160     4.5800    -1.2460 o          1 CV8      -0.376000
     25 C18         12.1270     2.8060    -3.1800 c3         1 CV8      -0.104000
     26 C19         12.6800     3.4410    -4.4610 c3         1 CV8       0.054000
     27 O05         13.4940     4.5650    -4.1160 os         1 CV8      -0.258000
     28 H09         -0.3820    -0.9990     0.1730 hc         1 CV8       0.065500
     29 H10         -0.3820     0.4100    -0.9270 hc         1 CV8       0.065500
     30 H16          2.1120    -1.0140     1.8290 hc         1 CV8       0.065500
     31 H15          2.8050     0.6150     1.6540 hc         1 CV8       0.065500
     32 H17          2.9140    -5.1520    -2.9610 h1         1 CV8       0.039000
     33 H18          4.5230    -4.6880    -2.3890 h1         1 CV8       0.039000
     34 H19          3.8670    -3.9690    -3.8670 h1         1 CV8       0.039000
     35 H21          6.8600    -0.9380    -2.6610 ha         1 CV8       0.121000
     36 H26         14.0260     2.8990    -6.0460 hc         1 CV8       0.052333
     37 H24         14.2610     1.9870    -4.5480 hc         1 CV8       0.052333
     38 H28         13.3610     7.6760    -3.6750 hc         1 CV8       0.052333
     39 H29         13.8140     6.9590    -2.1230 hc         1 CV8       0.052333
     40 H30         14.7200     6.5480    -3.5850 hc         1 CV8       0.052333
     41 H27         11.9650     5.9460    -4.0730 h1         1 CV8       0.053500
     42 H02         11.5880     5.8350    -1.6760 h1         1 CV8       0.078000
     43 H03         13.0640     4.8770    -1.4470 h1         1 CV8       0.078000
     44 H04          9.3630     2.3030    -3.2560 h1         1 CV8       0.052000
     45 H05         10.0190     1.5850    -1.7780 h1         1 CV8       0.052000
     46 H07          3.6860     0.8490    -0.3840 ha         1 CV8       0.148000
     47 H08          1.9250     0.8930    -0.4840 h1         1 CV8       0.072000
     48 H11         -1.3330     0.7100     1.5700 hc         1 CV8       0.056000
     49 H12         -0.2640     1.9690     0.8940 hc         1 CV8       0.056000
     50 H13          1.0260     1.4930     2.7750 hc         1 CV8       0.056000
     51 H14          0.3350    -0.1360     2.9520 hc         1 CV8       0.056000
     52 H20          5.4730    -2.9380    -3.0190 ha         1 CV8       0.127000
     53 H23         12.9380     2.3650    -2.6140 h1         1 CV8       0.078000
     54 H22         11.3990     2.0460    -3.4370 h1         1 CV8       0.078000
     55 H01         11.8570     3.7700    -5.0830 h1         1 CV8       0.053500
     56 C05          6.1940     1.2860    -1.2840 c2         1 CV8      -0.373000
     57 H25         12.8810     1.6270    -5.5960 hc         1 CV8       0.052333
     58 H06          6.3100     0.3570    -0.7410 DU         1 CV8       0.326000
@<TRIPOS>BOND
     1     1    18 1   
     2     1    19 1   
     3     1    28 1   
     4     1    29 1   
     5     2    18 1   
     6     2    20 1   
     7     2    30 1   
     8     2    31 1   
     9     3    22 1   
    10     3    32 1   
    11     3    33 1   
    12     3    34 1   
    13     4    14 1   
    14     4    23 1   
    15     4    35 1   
    16     5    26 1   
    17     5    36 1   
    18     5    37 1   
    19     5    57 1   
    20     6     7 1   
    21     6    38 1   
    22     6    39 1   
    23     6    40 1   
    24     7     8 1   
    25     7    27 1   
    26     7    41 1   
    27     8     9 1   
    28     8    42 1   
    29     8    43 1   
    30     9    10 1   
    31     9    25 1   
    32    10    11 1   
    33    10    24 1   
    34    11    12 1   
    35    11    44 1   
    36    11    45 1   
    37    12    13 1   
    38    13    56 1   
    39    14    15 1   
    40    14    56 1   
    41    14    58 1   
    42    15    16 1   
    43    15    46 1   
    44    16    17 1   
    45    16    21 1   
    46    17    18 1   
    47    18    47 1   
    48    19    20 1   
    49    19    48 1   
    50    19    49 1   
    51    20    50 1   
    52    20    51 1   
    53    21    22 1   
    54    21    23 1   
    55    23    52 1   
    56    25    26 1   
    57    25    53 1   
    58    25    54 1   
    59    26    27 1   
    60    26    55 1   
    61    56    58 1   
@<TRIPOS>SUBSTRUCTURE
     1 CV8         1 TEMP              0 ****  ****    0 ROOT
