@<TRIPOS>MOLECULE
molecule
   58    60     1     0     0
SMALL
bcc


@<TRIPOS>ATOM
      1 C10          0.0000     0.0000     0.0000 c3         1 CV8      -0.092900
      2 C13          1.9270     0.0000     1.4950 c3         1 CV8      -0.092900
      3 C15          3.6220    -4.3360    -2.8780 c3         1 CV8       0.126700
      4 C17          5.8630    -0.9870    -2.2420 ca         1 CV8      -0.088000
      5 C20         13.5240     2.4130    -5.2180 c3         1 CV8      -0.086100
      6 C21         13.7400     6.7850    -3.1890 c3         1 CV8      -0.086100
      7 C01         12.7880     5.6160    -3.4510 c3         1 CV8       0.127100
      8 C02         12.2410     5.0920    -2.1180 c3         1 CV8       0.074000
      9 N01         11.4820     3.8590    -2.3810 n          1 CV8      -0.497800
     10 C03         10.2310     3.7000    -1.9040 c          1 CV8       0.662100
     11 C04          9.4740     2.4280    -2.1850 c3         1 CV8       0.080400
     12 O01          8.1830     2.4990    -1.5780 os         1 CV8      -0.176300
     13 N02          7.3860     1.3460    -1.7840 n2         1 CV8      -0.459200
     14 C06          5.3630     0.0860    -1.4990 ca         1 CV8      -0.141900
     15 C07          4.0760     0.0200    -0.9610 ca         1 CV8      -0.167000
     16 C08          3.3020    -1.1070    -1.1660 ca         1 CV8       0.114100
     17 O02          2.0480    -1.1750    -0.6420 os         1 CV8      -0.306900
     18 C09          1.5490     0.0000     0.0000 c3         1 CV8       0.133100
     19 C11         -0.3420     0.9300     1.1910 c3         1 CV8      -0.083400
     20 C12          0.7260     0.5920     2.2530 c3         1 CV8      -0.083400
     21 C14          3.8060    -2.1730    -1.9080 ca         1 CV8       0.131100
     22 O03          3.0440    -3.2810    -2.1080 os         1 CV8      -0.310900
     23 C16          5.0850    -2.1070    -2.4430 ca         1 CV8      -0.201000
     24 O04          9.7160     4.5800    -1.2460 o          1 CV8      -0.583100
     25 C18         12.1270     2.8060    -3.1800 c3         1 CV8       0.074000
     26 C19         12.6800     3.4410    -4.4610 c3         1 CV8       0.127100
     27 O05         13.4940     4.5650    -4.1160 os         1 CV8      -0.419600
     28 H09         -0.3820     0.4100    -0.9270 hc         1 CV8       0.056950
     29 H10         -0.3820    -0.9990     0.1730 hc         1 CV8       0.056950
     30 H16          2.1120    -1.0140     1.8290 hc         1 CV8       0.056950
     31 H15          2.8050     0.6150     1.6540 hc         1 CV8       0.056950
     32 H17          4.5230    -4.6880    -2.3890 h1         1 CV8       0.041700
     33 H18          3.8670    -3.9690    -3.8670 h1         1 CV8       0.041700
     34 H19          2.9140    -5.1520    -2.9610 h1         1 CV8       0.041700
     35 H21          6.8600    -0.9380    -2.6610 ha         1 CV8       0.150000
     36 H26         12.8880     1.6040    -5.5570 hc         1 CV8       0.047867
     37 H24         13.9900     2.8890    -6.0720 hc         1 CV8       0.047867
     38 H28         13.1990     7.5910    -2.7080 hc         1 CV8       0.047867
     39 H29         14.5470     6.4560    -2.5450 hc         1 CV8       0.047867
     40 H30         14.1490     7.1350    -4.1290 hc         1 CV8       0.047867
     41 H27         11.9650     5.9460    -4.0730 h1         1 CV8       0.044200
     42 H02         11.5880     5.8350    -1.6760 h1         1 CV8       0.064450
     43 H03         13.0640     4.8770    -1.4470 h1         1 CV8       0.064450
     44 H04         10.0190     1.5850    -1.7780 h1         1 CV8       0.052200
     45 H05          9.3630     2.3030    -3.2560 h1         1 CV8       0.052200
     46 H07          3.6860     0.8490    -0.3840 ha         1 CV8       0.148000
     47 H08          1.9250     0.8930    -0.4840 h1         1 CV8       0.051700
     48 H11         -1.3330     0.7100     1.5700 hc         1 CV8       0.047200
     49 H12         -0.2640     1.9690     0.8940 hc         1 CV8       0.047200
     50 H13          0.3350    -0.1360     2.9520 hc         1 CV8       0.047200
     51 H14          1.0260     1.4930     2.7750 hc         1 CV8       0.047200
     52 H20          5.4730    -2.9380    -3.0190 ha         1 CV8       0.143000
     53 H23         11.3990     2.0460    -3.4370 h1         1 CV8       0.064450
     54 H22         12.9380     2.3650    -2.6140 h1         1 CV8       0.064450
     55 H01         11.8570     3.7700    -5.0830 h1         1 CV8       0.044200
     56 C05          6.1940     1.2860    -1.2840 ce         1 CV8       0.450800
     57 H25         14.2900     2.0200    -4.5610 hc         1 CV8       0.047867
     58 H06          5.8060     2.1180    -0.7080 h4         1 CV8       0.004800
@<TRIPOS>BOND
     1     6     7 1
     2     7    27 1
     3     7     8 1
     4    27    26 1
     5     5    26 1
     6     8     9 1
     7    26    25 1
     8    25     9 1
     9     9    10 1
    10    10    24 2
    11    10    11 1
    12    19    20 1
    13    19     1 1
    14    20     2 1
    15     2    18 1
    16    11    12 1
    17     1    18 1
    18    18    17 1
    19    12    13 1
    20    13    56 2
    21    17    16 1
    22    15    16 ar
    23    15    14 ar
    24    16    21 ar
    25    56    14 1
    26    14     4 ar
    27    21    22 1
    28    21    23 ar
    29    22     3 1
    30     4    23 ar
    31     1    28 1
    32     1    29 1
    33     2    30 1
    34     2    31 1
    35     3    32 1
    36     3    33 1
    37     3    34 1
    38     4    35 1
    39     5    57 1
    40     5    36 1
    41     5    37 1
    42     6    38 1
    43     6    39 1
    44     6    40 1
    45     7    41 1
    46     8    42 1
    47     8    43 1
    48    11    44 1
    49    11    45 1
    50    56    58 1
    51    15    46 1
    52    18    47 1
    53    19    48 1
    54    19    49 1
    55    20    50 1
    56    20    51 1
    57    23    52 1
    58    25    53 1
    59    25    54 1
    60    26    55 1
@<TRIPOS>SUBSTRUCTURE
     1 CV8         1 TEMP              0 ****  ****    0 ROOT
