@<TRIPOS>MOLECULE
CVA
   82    86     1     0     0
SMALL
bcc


@<TRIPOS>ATOM
      1 O4           0.0000     0.0000     0.0000 o          1 CVA      -0.657500
      2 C26          1.2130     0.0000     0.0000 c          1 CVA       0.615500
      3 N3           1.9100     0.0000     1.1600 n          1 CVA       0.077200
      4 C19          1.2050    -0.0860     2.4420 c3         1 CVA       0.039700
      5 C25          1.6510    -1.2790     3.1450 c3         1 CVA      -0.046900
      6 C24          0.9090    -1.4860     4.4820 c3         1 CVA      -0.023400
      7 C23          1.5280    -0.5870     5.5170 c3         1 CVA      -0.026900
      8 C22          0.7920     0.7610     5.6450 c3         1 CVA      -0.026900
      9 C21          0.3880     1.3520     4.2810 c3         1 CVA      -0.023400
     10 C20          1.4700     1.2030     3.2450 c3         1 CVA      -0.046900
     11 N2           3.3080     0.0840     1.1310 n2         1 CVA      -0.522300
     12 C27          1.9870    -0.0080    -1.2900 c3         1 CVA      -0.121700
     13 C32          3.2430    -0.8690    -1.1010 c3         1 CVA      -0.110000
     14 C31          2.8100    -2.2960    -0.7420 c3         1 CVA       0.020800
     15 C30          1.7280    -2.7800    -1.6550 c2         1 CVA      -0.167200
     16 C29          0.9980    -2.0100    -2.3950 c2         1 CVA      -0.135200
     17 C28          1.1550    -0.5200    -2.4510 c3         1 CVA       0.037800
     18 C18          3.9850    -0.3120     0.0980 ce         1 CVA       0.414900
     19 C4           5.4580    -0.2260     0.0930 ca         1 CVA      -0.177900
     20 C3           6.1800    -0.6550    -1.0260 ca         1 CVA      -0.043000
     21 C2           7.5550    -0.5750    -1.0340 ca         1 CVA      -0.216000
     22 C5           6.1310     0.2880     1.2000 ca         1 CVA      -0.015000
     23 C6           7.5190     0.3670     1.1890 cp         1 CVA      -0.086000
     24 C1           8.2320    -0.0710     0.0670 ca         1 CVA       0.177100
     25 O            9.5880     0.0050     0.0530 os         1 CVA      -0.297900
     26 C           10.2520    -0.4600    -1.1250 c3         1 CVA       0.240700
     27 C7           8.2420     0.9130     2.3630 cp         1 CVA      -0.001000
     28 C12          9.3130     0.2070     2.9110 ca         1 CVA      -0.101000
     29 C11          9.9860     0.7120     4.0010 ca         1 CVA      -0.059000
     30 C10          9.5940     1.9330     4.5580 ca         1 CVA      -0.158600
     31 C9           8.5210     2.6390     4.0070 ca         1 CVA      -0.059000
     32 C8           7.8540     2.1340     2.9150 ca         1 CVA      -0.101000
     33 C13         10.3130     2.4750     5.7270 c          1 CVA       0.597700
     34 O1          11.2460     1.8610     6.2060 o          1 CVA      -0.663100
     35 N            9.9360     3.6530     6.2630 ns         1 CVA      -0.190900
     36 C14         10.6490     4.1920     7.4240 c3         1 CVA      -0.017000
     37 C15         10.0340     5.5080     7.8260 c          1 CVA       0.561100
     38 O2           9.0930     5.9520     7.2040 o          1 CVA      -0.662100
     39 N1          10.5310     6.1910     8.8750 ns         1 CVA      -0.174900
     40 C16          9.9340     7.4710     9.2660 c3         1 CVA       0.042000
     41 C17         10.6780     8.0330    10.4780 c3         1 CVA       0.210400
     42 O3          12.0240     8.3420    10.1090 oh         1 CVA      -0.595800
     43 H1           0.1410    -0.1680     2.2560 h1         1 CVA       0.072700
     44 H2           1.4790    -2.1420     2.5130 hc         1 CVA       0.027700
     45 H3           1.0040    -2.5190     4.7940 hc         1 CVA       0.018450
     46 H4           2.5590    -0.3970     5.2430 hc         1 CVA       0.012700
     47 H5           1.5020    -1.0900     6.4760 hc         1 CVA       0.012700
     48 H6           1.4420     1.4650     6.1510 hc         1 CVA       0.012700
     49 H7          -0.1020     0.6140     6.2380 hc         1 CVA       0.012700
     50 H8           0.1710     2.4060     4.4090 hc         1 CVA       0.018450
     51 H9          -0.5030     0.8450     3.9310 hc         1 CVA       0.018450
     52 H10          1.4530     2.0570     2.5780 hc         1 CVA       0.027700
     53 H11          2.4340     1.1350     3.7350 hc         1 CVA       0.027700
     54 H12          2.2960     1.0070    -1.5120 hc         1 CVA       0.047700
     55 H13          3.8650    -0.8580    -1.9880 hc         1 CVA       0.057700
     56 H14          3.6640    -2.9560    -0.8250 hc         1 CVA       0.028200
     57 H15          2.4430    -2.3080     0.2770 hc         1 CVA       0.028200
     58 H16          1.5440    -3.8470    -1.6990 ha         1 CVA       0.100000
     59 H17          0.2310    -2.4670    -3.0090 ha         1 CVA       0.101000
     60 H18          1.6410    -0.2510    -3.3810 hc         1 CVA       0.034200
     61 H19          0.1740    -0.0610    -2.4120 hc         1 CVA       0.034200
     62 H20          5.6560    -1.0500    -1.8880 ha         1 CVA       0.110000
     63 H21          8.1100    -0.9110    -1.9020 ha         1 CVA       0.124000
     64 H22          5.5740     0.6250     2.0660 ha         1 CVA       0.132000
     65 H23         11.3220    -0.3480    -1.0040 h1         1 CVA      -0.000300
     66 H24          9.9220     0.1200    -1.9780 h1         1 CVA      -0.000300
     67 H25         10.0140    -1.5050    -1.2850 h1         1 CVA      -0.000300
     68 H26          9.6170    -0.7390     2.4790 ha         1 CVA       0.114000
     69 H27         10.8170     0.1640     4.4270 ha         1 CVA       0.117500
     70 H28          8.2180     3.5860     4.4360 ha         1 CVA       0.117500
     71 H29          7.0220     2.6820     2.4870 ha         1 CVA       0.114000
     72 H30          9.1860     4.1730     5.8520 hn         1 CVA       0.209500
     73 H31         11.6910     4.3430     7.1690 h1         1 CVA       0.038700
     74 H32         10.5770     3.4930     8.2490 h1         1 CVA       0.038700
     75 H33         11.2980     5.8170     9.3980 hn         1 CVA       0.183500
     76 H34          8.8920     7.3200     9.5210 h1         1 CVA       0.034200
     77 H35         10.0060     8.1700     8.4410 h1         1 CVA       0.034200
     78 H36         10.1820     8.9330    10.8200 h1         1 CVA      -0.006300
     79 H37         10.6820     7.2980    11.2730 h1         1 CVA      -0.006300
     80 H38         12.4150     8.8860    10.7720 ho         1 CVA       0.397000
     81 H39          2.7120    -1.1910     3.3450 hc         1 CVA       0.027700
     82 H40         -0.1370    -1.2320     4.3590 hc         1 CVA       0.018450
@<TRIPOS>BOND
     1     1     2 2   
     2     2     3 1   
     3     2    12 1   
     4     3     4 1   
     5     3    11 1   
     6     4     5 1   
     7     4    10 1   
     8     4    43 1   
     9     5     6 1   
    10     5    44 1   
    11     5    81 1   
    12     6     7 1   
    13     6    45 1   
    14     6    82 1   
    15     7     8 1   
    16     7    46 1   
    17     7    47 1   
    18     8     9 1   
    19     8    48 1   
    20     8    49 1   
    21     9    10 1   
    22     9    50 1   
    23     9    51 1   
    24    10    52 1   
    25    10    53 1   
    26    11    18 2   
    27    12    13 1   
    28    12    17 1   
    29    12    54 1   
    30    13    14 1   
    31    13    18 1   
    32    13    55 1   
    33    14    15 1   
    34    14    56 1   
    35    14    57 1   
    36    15    16 2   
    37    15    58 1   
    38    16    17 1   
    39    16    59 1   
    40    17    60 1   
    41    17    61 1   
    42    18    19 1   
    43    19    20 ar  
    44    19    22 ar  
    45    20    21 ar  
    46    20    62 1   
    47    21    24 ar  
    48    21    63 1   
    49    22    23 ar  
    50    22    64 1   
    51    23    24 ar  
    52    23    27 1   
    53    24    25 1   
    54    25    26 1   
    55    26    65 1   
    56    26    66 1   
    57    26    67 1   
    58    27    28 ar  
    59    27    32 ar  
    60    28    29 ar  
    61    28    68 1   
    62    29    30 ar  
    63    29    69 1   
    64    30    31 ar  
    65    30    33 1   
    66    31    32 ar  
    67    31    70 1   
    68    32    71 1   
    69    33    34 2   
    70    33    35 1   
    71    35    36 1   
    72    35    72 1   
    73    36    37 1   
    74    36    73 1   
    75    36    74 1   
    76    37    38 2   
    77    37    39 1   
    78    39    40 1   
    79    39    75 1   
    80    40    41 1   
    81    40    76 1   
    82    40    77 1   
    83    41    42 1   
    84    41    78 1   
    85    41    79 1   
    86    42    80 1   
@<TRIPOS>SUBSTRUCTURE
     1 CVA         1 TEMP              0 ****  ****    0 ROOT
