@<TRIPOS>MOLECULE
CVD
   56    59     1     0     0
SMALL
bcc


@<TRIPOS>ATOM
      1 O1           0.0000     0.0000     0.0000 oh         1 CVD      -0.561800
      2 C1           1.4290     0.0000     0.0000 c3         1 CVD       0.188100
      3 C2           1.9390     0.0000     1.4430 c3         1 CVD       0.180400
      4 O2           1.5610    -1.2200     2.0820 os         1 CVD      -0.297900
      5 C3           1.9390    -1.3820     3.3770 ca         1 CVD       0.221100
      6 C14          2.6580    -0.3880     4.0200 ca         1 CVD      -0.260000
      7 C13          3.0440    -0.5530     5.3400 ca         1 CVD      -0.023000
      8 C12          2.7180    -1.7020     6.0300 ca         1 CVD      -0.170000
      9 C6           1.9960    -2.7130     5.4020 ca         1 CVD      -0.137200
     10 C4           1.5990    -2.5470     4.0680 cp         1 CVD      -0.123000
     11 C5           0.8560    -3.7650     3.6970 cp         1 CVD      -0.062000
     12 C8           0.2310    -4.1860     2.5260 ca         1 CVD      -0.037000
     13 C11         -0.3980    -5.4120     2.4890 ca         1 CVD      -0.138000
     14 C10         -0.4090    -6.2250     3.6110 ca         1 CVD      -0.076000
     15 C9           0.2070    -5.8210     4.7770 ca         1 CVD      -0.120000
     16 C7           0.8470    -4.5870     4.8340 ca         1 CVD      -0.184200
     17 N1           1.5430    -3.9430     5.8430 na         1 CVD       0.326700
     18 C15          1.9390     1.2480    -0.7220 c3         1 CVD       0.125800
     19 N2           1.4490     1.2480    -2.1070 n7         1 CVD      -0.557200
     20 C16          1.9200     2.4350    -2.8320 c3         1 CVD       0.139800
     21 C17          1.3910     2.4000    -4.2670 c3         1 CVD       0.202400
     22 O3          -0.0340     2.5060    -4.2520 os         1 CVD      -0.272900
     23 C18         -0.6670     2.4910    -5.4550 ca         1 CVD       0.118100
     24 C23          0.0670     2.3740    -6.6250 ca         1 CVD      -0.182000
     25 C22         -0.5770     2.3580    -7.8470 ca         1 CVD      -0.101000
     26 C21         -1.9560     2.4590    -7.9070 ca         1 CVD      -0.101000
     27 C20         -2.6940     2.5740    -6.7450 ca         1 CVD      -0.177000
     28 C19         -2.0550     2.5850    -5.5150 ca         1 CVD       0.119100
     29 O4          -2.7800     2.6930    -4.3700 os         1 CVD      -0.287900
     30 C24         -4.1990     2.7860    -4.5080 c3         1 CVD       0.240700
     31 H1          -0.3140    -0.7670    -0.4500 ho         1 CVD       0.394000
     32 HA           1.7900    -0.8850    -0.5100 h1         1 CVD       0.002700
     33 H21C         3.0190     0.0890     1.4440 h1         1 CVD       0.011700
     34 H22C         1.5070     0.8370     1.9780 h1         1 CVD       0.011700
     35 H151         1.5780     2.1330    -0.2120 h1         1 CVD       0.014200
     36 H152         3.0220     1.2480    -0.7220 h1         1 CVD       0.014200
     37 H14          2.9200     0.5190     3.4890 ha         1 CVD       0.122000
     38 H13          3.6060     0.2290     5.8360 ha         1 CVD       0.098000
     39 H12          3.0260    -1.8190     7.0620 ha         1 CVD       0.104000
     40 H8           0.2380    -3.5520     1.6480 ha         1 CVD       0.109000
     41 H11         -0.8860    -5.7420     1.5790 ha         1 CVD       0.103000
     42 H10         -0.9060    -7.1870     3.5730 ha         1 CVD       0.100000
     43 H91          0.1920    -6.4640     5.6480 ha         1 CVD       0.100000
     44 H2           1.7690     0.4230    -2.5740 hn         1 CVD       0.244800
     45 H161         3.0030     2.4430    -2.8470 h1         1 CVD       0.015200
     46 H162         1.5590     3.3280    -2.3360 h1         1 CVD       0.015200
     47 H171         1.8090     3.2280    -4.8270 h1         1 CVD      -0.000800
     48 H172         1.6780     1.4660    -4.7350 h1         1 CVD      -0.000800
     49 H23          1.1460     2.2960    -6.5820 ha         1 CVD       0.118000
     50 H22         -0.0020     2.2670    -8.7610 ha         1 CVD       0.102000
     51 H21         -2.4570     2.4480    -8.8670 ha         1 CVD       0.102000
     52 H20         -3.7740     2.6500    -6.7940 ha         1 CVD       0.121000
     53 H241        -4.6520     2.8650    -3.5270 h1         1 CVD      -0.003967
     54 H242        -4.5720     1.9010    -5.0080 h1         1 CVD      -0.003967
     55 H243        -4.4480     3.6640    -5.0920 h1         1 CVD      -0.003967
     56 HN1          1.6960    -4.3150     6.7590 hn         1 CVD       0.118700
@<TRIPOS>BOND
     1     1     2 1   
     2     1    31 1   
     3     2     3 1   
     4     2    18 1   
     5     2    32 1   
     6     3     4 1   
     7     3    33 1   
     8     3    34 1   
     9     4     5 1   
    10     5     6 ar  
    11     5    10 ar  
    12     6     7 ar  
    13     6    37 1   
    14     7     8 ar  
    15     7    38 1   
    16     8     9 ar  
    17     8    39 1   
    18     9    10 ar  
    19     9    17 1   
    20    10    11 1   
    21    11    12 ar  
    22    11    16 ar  
    23    12    13 ar  
    24    12    40 1   
    25    13    14 ar  
    26    13    41 1   
    27    14    15 ar  
    28    14    42 1   
    29    15    16 ar  
    30    15    43 1   
    31    16    17 1   
    32    17    56 1   
    33    18    19 1   
    34    18    35 1   
    35    18    36 1   
    36    19    20 1   
    37    19    44 1   
    38    20    21 1   
    39    20    45 1   
    40    20    46 1   
    41    21    22 1   
    42    21    47 1   
    43    21    48 1   
    44    22    23 1   
    45    23    24 ar  
    46    23    28 ar  
    47    24    25 ar  
    48    24    49 1   
    49    25    26 ar  
    50    25    50 1   
    51    26    27 ar  
    52    26    51 1   
    53    27    28 ar  
    54    27    52 1   
    55    28    29 1   
    56    29    30 1   
    57    30    53 1   
    58    30    54 1   
    59    30    55 1   
@<TRIPOS>SUBSTRUCTURE
     1 CVD         1 TEMP              0 ****  ****    0 ROOT
