@<TRIPOS>MOLECULE
molecule
   56    59     1     0     0
SMALL
bcc


@<TRIPOS>ATOM
      1 O1           0.0000     0.0000     0.0000 oh         1 CVD      -0.577800
      2 C1           1.4290     0.0000     0.0000 c3         1 CVD       0.153100
      3 C2           1.9390     0.0000     1.4430 c3         1 CVD       0.124400
      4 O2           1.5610    -1.2200     2.0820 os         1 CVD      -0.321900
      5 C3           1.9390    -1.3820     3.3770 ca         1 CVD       0.203100
      6 C14          2.6580    -0.3880     4.0200 ca         1 CVD      -0.264000
      7 C13          3.0440    -0.5530     5.3400 ca         1 CVD      -0.056000
      8 C12          2.7180    -1.7020     6.0300 ca         1 CVD      -0.201000
      9 C6           1.9960    -2.7130     5.4020 ca         1 CVD       0.041800
     10 C4           1.5990    -2.5470     4.0680 cp         1 CVD      -0.120000
     11 C5           0.8560    -3.7650     3.6970 cp         1 CVD      -0.069000
     12 C8           0.2310    -4.1860     2.5260 ca         1 CVD      -0.067000
     13 C11         -0.3980    -5.4120     2.4890 ca         1 CVD      -0.164000
     14 C10         -0.4090    -6.2250     3.6110 ca         1 CVD      -0.100000
     15 C9           0.2070    -5.8210     4.7770 ca         1 CVD      -0.159000
     16 C7           0.8470    -4.5870     4.8340 ca         1 CVD      -0.003200
     17 N1           1.5430    -3.9430     5.8430 na         1 CVD      -0.192300
     18 C15          1.9390     1.2480    -0.7220 c3         1 CVD       0.146800
     19 N2           1.4490     1.2480    -2.1070 n7         1 CVD      -0.794200
     20 C16          1.9200     2.4350    -2.8320 c3         1 CVD       0.160800
     21 C17          1.3910     2.4000    -4.2670 c3         1 CVD       0.140400
     22 O3          -0.0340     2.5060    -4.2520 os         1 CVD      -0.293900
     23 C18         -0.6670     2.4910    -5.4550 ca         1 CVD       0.116100
     24 C23          0.0670     2.3740    -6.6250 ca         1 CVD      -0.194000
     25 C22         -0.5770     2.3580    -7.8470 ca         1 CVD      -0.129000
     26 C21         -1.9560     2.4590    -7.9070 ca         1 CVD      -0.130000
     27 C20         -2.6940     2.5740    -6.7450 ca         1 CVD      -0.190000
     28 C19         -2.0550     2.5850    -5.5150 ca         1 CVD       0.117100
     29 O4          -2.7800     2.6930    -4.3700 os         1 CVD      -0.307900
     30 C24         -4.1990     2.7860    -4.5080 c3         1 CVD       0.127700
     31 H1          -0.3140    -0.7670    -0.4500 ho         1 CVD       0.409000
     32 HA           1.7900    -0.8850    -0.5100 h1         1 CVD       0.038700
     33 H21C         3.0190     0.0890     1.4440 h1         1 CVD       0.046200
     34 H22C         1.5070     0.8370     1.9780 h1         1 CVD       0.046200
     35 H151         1.5780     2.1330    -0.2120 h1         1 CVD       0.040700
     36 H152         3.0220     1.2480    -0.7220 h1         1 CVD       0.040700
     37 H14          2.9200     0.5190     3.4890 ha         1 CVD       0.135000
     38 H13          3.6060     0.2290     5.8360 ha         1 CVD       0.132000
     39 H12          3.0260    -1.8190     7.0620 ha         1 CVD       0.129000
     40 H8           0.2380    -3.5520     1.6480 ha         1 CVD       0.141000
     41 H11         -0.8860    -5.7420     1.5790 ha         1 CVD       0.130000
     42 H10         -0.9060    -7.1870     3.5730 ha         1 CVD       0.130000
     43 H91          0.1920    -6.4640     5.6480 ha         1 CVD       0.126000
     44 H2           1.7690     0.4230    -2.5740 hn         1 CVD       0.346800
     45 H161         3.0030     2.4430    -2.8470 h1         1 CVD       0.045700
     46 H162         1.5590     3.3280    -2.3360 h1         1 CVD       0.045700
     47 H171         1.8090     3.2280    -4.8270 h1         1 CVD       0.033200
     48 H172         1.6780     1.4660    -4.7350 h1         1 CVD       0.033200
     49 H23          1.1460     2.2960    -6.5820 ha         1 CVD       0.135000
     50 H22         -0.0020     2.2670    -8.7610 ha         1 CVD       0.129000
     51 H21         -2.4570     2.4480    -8.8670 ha         1 CVD       0.130000
     52 H20         -3.7740     2.6500    -6.7940 ha         1 CVD       0.139000
     53 H241        -4.6520     2.8650    -3.5270 h1         1 CVD       0.039367
     54 H242        -4.5720     1.9010    -5.0080 h1         1 CVD       0.039367
     55 H243        -4.4480     3.6640    -5.0920 h1         1 CVD       0.039367
     56 HN1          1.6960    -4.3150     6.7590 hn         1 CVD       0.299700
@<TRIPOS>BOND
     1     1     2 1
     2     2     3 1
     3     2    18 1
     4     3     4 1
     5     4     5 1
     6     5     6 ar
     7     5    10 ar
     8     6     7 ar
     9     7     8 ar
    10     8     9 ar
    11     9    10 ar
    12     9    17 1
    13    10    11 1
    14    11    12 ar
    15    11    16 ar
    16    12    13 ar
    17    13    14 ar
    18    14    15 ar
    19    15    16 ar
    20    16    17 1
    21    18    19 1
    22    19    20 1
    23    20    21 1
    24    21    22 1
    25    22    23 1
    26    23    24 ar
    27    23    28 ar
    28    24    25 ar
    29    25    26 ar
    30    26    27 ar
    31    27    28 ar
    32    28    29 1
    33    29    30 1
    34     1    31 1
    35     2    32 1
    36     3    33 1
    37     3    34 1
    38    18    35 1
    39    18    36 1
    40     6    37 1
    41     7    38 1
    42     8    39 1
    43    12    40 1
    44    13    41 1
    45    14    42 1
    46    15    43 1
    47    17    56 1
    48    19    44 1
    49    20    45 1
    50    20    46 1
    51    21    47 1
    52    21    48 1
    53    24    49 1
    54    25    50 1
    55    26    51 1
    56    27    52 1
    57    30    53 1
    58    30    54 1
    59    30    55 1
@<TRIPOS>SUBSTRUCTURE
     1 CVD         1 TEMP              0 ****  ****    0 ROOT
