@<TRIPOS>MOLECULE
CVE
   67    70     1     0     0
SMALL
bcc


@<TRIPOS>ATOM
      1 C4           0.0000     0.0000     0.0000 c          1 CVE       0.610700
      2 C6           0.0170     0.0000     2.3370 c          1 CVE       0.596500
      3 N1           1.3620     0.0010     2.3560 n          1 CVE       0.043000
      4 C9          -2.1260     0.0010     1.1870 c3         1 CVE      -0.071300
      5 C10         -2.6420    -1.2480     0.4690 c3         1 CVE      -0.017100
      6 C11         -2.6340     1.2320     0.4800 c          1 CVE       0.609100
      7 O7          -0.5960     0.0010     3.3880 o          1 CVE      -0.728500
      8 C14          2.0700     0.0000     3.6390 c3         1 CVE       0.074300
      9 O8          -0.5970     0.0210    -1.0610 o          1 CVE      -0.578500
     10 C2           2.0770     0.0000     1.1850 cc         1 CVE      -0.140400
     11 C3           1.4210     0.0000     0.0000 cd         1 CVE      -0.208600
     12 N5          -0.6610     0.0010     1.1750 n          1 CVE      -0.045400
     13 N12         -4.0640     1.4770     0.3830 ns         1 CVE      -0.190900
     14 O13         -1.8670     1.9970    -0.0030 o          1 CVE      -0.626100
     15 N15          2.1460     0.0980    -1.2540 ns         1 CVE      -0.130100
     16 C16          2.0800    -0.9870    -2.2170 c          1 CVE       0.636700
     17 C17          2.8430    -0.8840    -3.5360 ca         1 CVE      -0.160600
     18 O18          1.4340    -1.9520    -1.9790 o          1 CVE      -0.570100
     19 C19          2.7020    -1.9790    -4.3720 ca         1 CVE      -0.044000
     20 C20          3.3470    -2.0030    -5.5970 ca         1 CVE      -0.126000
     21 C21          4.1330    -0.9300    -5.9880 ca         1 CVE       0.023600
     22 C22          4.2730     0.1660    -5.1520 ca         1 CVE      -0.126000
     23 C23          3.6290     0.1890    -3.9260 ca         1 CVE      -0.044000
     24 N24          4.8370    -0.9710    -7.2530 nu         1 CVE      -0.365300
     25 C25          5.4230    -2.2130    -7.7170 ca         1 CVE       0.410900
     26 C26          6.0940    -2.2260    -8.9350 ca         1 CVE       0.246900
     27 N27          6.6380    -3.3490    -9.3800 nb         1 CVE      -0.527000
     28 N28          5.3270    -3.3230    -7.0010 nb         1 CVE      -0.599000
     29 C29          5.8780    -4.4630    -7.4510 ca         1 CVE       0.309300
     30 C30          6.5410    -4.4760    -8.6540 ca         1 CVE       0.220300
     31 C31          7.1180    -5.6710    -9.1260 ca         1 CVE      -0.122300
     32 C32          7.0170    -6.8350    -8.3750 ca         1 CVE      -0.115000
     33 C33          6.3450    -6.8210    -7.1560 ca         1 CVE      -0.083000
     34 C34          5.7760    -5.6450    -6.6910 ca         1 CVE      -0.149300
     35 C35         -4.5530     2.6760    -0.2800 c3         1 CVE       0.035700
     36 C36         -4.6060     3.8250     0.7210 c3         1 CVE       0.192400
     37 O37         -6.9240     0.9730    -2.5040 o          1 CVE      -0.896300
     38 C39         -5.9520     2.4160    -0.8330 c3         1 CVE      -0.153400
     39 O40         -4.7480     1.0010    -2.3720 o          1 CVE      -0.896300
     40 O41         -5.4930     3.5020     1.7550 oh         1 CVE      -0.586800
     41 H1          -2.4790     0.0010     2.2110 h1         1 CVE       0.072700
     42 H2          -2.7000    -1.0560    -0.5950 hc         1 CVE       0.027367
     43 H3          -3.6260    -1.5000     0.8450 hc         1 CVE       0.027367
     44 H4          -1.9650    -2.0740     0.6500 hc         1 CVE       0.027367
     45 H5           3.0810     0.3610     3.4930 h1         1 CVE       0.017700
     46 H6           2.1000    -1.0080     4.0340 h1         1 CVE       0.017700
     47 H7           1.5530     0.6470     4.3370 h1         1 CVE       0.017700
     48 H8           3.1580    -0.0680     1.2090 h4         1 CVE       0.126000
     49 H9          -4.7120     0.8030     0.7400 hn         1 CVE       0.177500
     50 H10          2.7000     0.9080    -1.4500 hn         1 CVE       0.170500
     51 H11          2.0390    -2.7900    -4.0950 ha         1 CVE       0.117500
     52 H12          3.2370    -2.8600    -6.2510 ha         1 CVE       0.116500
     53 H13          4.8870     1.0050    -5.4570 ha         1 CVE       0.116500
     54 H14          3.6810     1.0760    -3.3060 ha         1 CVE       0.117500
     55 H15          4.9110    -0.1440    -7.8120 hn         1 CVE       0.292800
     56 H16          6.3150    -1.3900    -9.5880 h4         1 CVE      -0.005900
     57 H17          7.6470    -5.6810   -10.0710 ha         1 CVE       0.113000
     58 H18          7.4610    -7.7540    -8.7390 ha         1 CVE       0.104000
     59 H19          6.2690    -7.7290    -6.5700 ha         1 CVE       0.104000
     60 H20          5.2540    -5.6340    -5.7420 ha         1 CVE       0.122000
     61 H21         -3.8860     2.9360    -1.0940 h1         1 CVE       0.075700
     62 H22         -4.9470     4.7240     0.2210 h1         1 CVE      -0.020800
     63 H23         -3.6180     3.9920     1.1310 h1         1 CVE      -0.020800
     64 H25         -6.5840     2.0210    -0.0460 hc         1 CVE       0.014200
     65 H26         -6.3730     3.3440    -1.2010 hc         1 CVE       0.014200
     66 H27         -5.7050     4.2810     2.2410 ho         1 CVE       0.368000
     67 C38         -5.8700     1.4080    -1.9720 c          1 CVE       0.980600
@<TRIPOS>BOND
     1     1     9 2   
     2     1    11 1   
     3     1    12 1   
     4     2     3 1   
     5     2     7 2   
     6     2    12 1   
     7     3     8 1   
     8     3    10 1   
     9     4     5 1   
    10     4     6 1   
    11     4    12 1   
    12     4    41 1   
    13     5    42 1   
    14     5    43 1   
    15     5    44 1   
    16     6    13 1   
    17     6    14 2   
    18     8    45 1   
    19     8    46 1   
    20     8    47 1   
    21    10    11 2   
    22    10    48 1   
    23    11    15 1   
    24    13    35 1   
    25    13    49 1   
    26    15    16 1   
    27    15    50 1   
    28    16    17 1   
    29    16    18 2   
    30    17    19 ar  
    31    17    23 ar  
    32    19    20 ar  
    33    19    51 1   
    34    20    21 ar  
    35    20    52 1   
    36    21    22 ar  
    37    21    24 1   
    38    22    23 ar  
    39    22    53 1   
    40    23    54 1   
    41    24    25 1   
    42    24    55 1   
    43    25    26 ar  
    44    25    28 ar  
    45    26    27 ar  
    46    26    56 1   
    47    27    30 ar  
    48    28    29 ar  
    49    29    30 ar  
    50    29    34 ar  
    51    30    31 ar  
    52    31    32 ar  
    53    31    57 1   
    54    32    33 ar  
    55    32    58 1   
    56    33    34 ar  
    57    33    59 1   
    58    34    60 1   
    59    35    36 1   
    60    35    38 1   
    61    35    61 1   
    62    36    40 1   
    63    36    62 1   
    64    36    63 1   
    65    37    67 1   
    66    38    64 1   
    67    38    65 1   
    68    38    67 1   
    69    39    67 1   
    70    40    66 1   
@<TRIPOS>SUBSTRUCTURE
     1 CVE         1 TEMP              0 ****  ****    0 ROOT
