@<TRIPOS>MOLECULE
molecule
   67    70     1     0     0
SMALL
bcc


@<TRIPOS>ATOM
      1 C4           0.0000     0.0000     0.0000 c          1 CVE       0.696700
      2 C6           0.0170     0.0000     2.3370 c          1 CVE       0.812500
      3 N1           1.3620     0.0010     2.3560 n          1 CVE      -0.369000
      4 C9          -2.1260     0.0010     1.1870 c3         1 CVE       0.038700
      5 C10         -2.6420    -1.2480     0.4690 c3         1 CVE      -0.103100
      6 C11         -2.6340     1.2320     0.4800 c          1 CVE       0.678100
      7 O7          -0.5960     0.0010     3.3880 o          1 CVE      -0.673500
      8 C14          2.0700     0.0000     3.6390 c3         1 CVE       0.108300
      9 O8          -0.5970     0.0210    -1.0610 o          1 CVE      -0.542500
     10 C2           2.0770     0.0000     1.1850 cc         1 CVE      -0.016400
     11 C3           1.4210     0.0000     0.0000 cd         1 CVE      -0.085600
     12 N5          -0.6610     0.0010     1.1750 n          1 CVE      -0.448400
     13 N12         -4.0640     1.4770     0.3830 ns         1 CVE      -0.575900
     14 O13         -1.8670     1.9970    -0.0030 o          1 CVE      -0.579100
     15 N15          2.1460     0.0980    -1.2540 ns         1 CVE      -0.532100
     16 C16          2.0800    -0.9870    -2.2170 c          1 CVE       0.703700
     17 C17          2.8430    -0.8840    -3.5360 ca         1 CVE      -0.148600
     18 O18          1.4340    -1.9520    -1.9790 o          1 CVE      -0.532100
     19 C19          2.7020    -1.9790    -4.3720 ca         1 CVE      -0.072500
     20 C20          3.3470    -2.0030    -5.5970 ca         1 CVE      -0.151500
     21 C21          4.1330    -0.9300    -5.9880 ca         1 CVE       0.173600
     22 C22          4.2730     0.1660    -5.1520 ca         1 CVE      -0.151500
     23 C23          3.6290     0.1890    -3.9260 ca         1 CVE      -0.072500
     24 N24          4.8370    -0.9710    -7.2530 nu         1 CVE      -0.805300
     25 C25          5.4230    -2.2130    -7.7170 ca         1 CVE       0.591900
     26 C26          6.0940    -2.2260    -8.9350 ca         1 CVE       0.267900
     27 N27          6.6380    -3.3490    -9.3800 nb         1 CVE      -0.626000
     28 N28          5.3270    -3.3230    -7.0010 nb         1 CVE      -0.708000
     29 C29          5.8780    -4.4630    -7.4510 ca         1 CVE       0.351300
     30 C30          6.5410    -4.4760    -8.6540 ca         1 CVE       0.255300
     31 C31          7.1180    -5.6710    -9.1260 ca         1 CVE      -0.147300
     32 C32          7.0170    -6.8350    -8.3750 ca         1 CVE      -0.141000
     33 C33          6.3450    -6.8210    -7.1560 ca         1 CVE      -0.111000
     34 C34          5.7760    -5.6450    -6.6910 ca         1 CVE      -0.173300
     35 C35         -4.5530     2.6760    -0.2800 c3         1 CVE       0.148700
     36 C36         -4.6060     3.8250     0.7210 c3         1 CVE       0.111400
     37 O37         -6.9240     0.9730    -2.5040 o          1 CVE      -0.845800
     38 C39         -5.9520     2.4160    -0.8330 c3         1 CVE      -0.203400
     39 O40         -4.7480     1.0010    -2.3720 o          1 CVE      -0.845800
     40 O41         -5.4930     3.5020     1.7550 oh         1 CVE      -0.602800
     41 H1          -2.4790     0.0010     2.2110 h1         1 CVE       0.098700
     42 H2          -2.7000    -1.0560    -0.5950 hc         1 CVE       0.060367
     43 H3          -3.6260    -1.5000     0.8450 hc         1 CVE       0.060367
     44 H4          -1.9650    -2.0740     0.6500 hc         1 CVE       0.060367
     45 H5           3.0810     0.3610     3.4930 h1         1 CVE       0.050033
     46 H6           2.1000    -1.0080     4.0340 h1         1 CVE       0.050033
     47 H7           1.5530     0.6470     4.3370 h1         1 CVE       0.050033
     48 H8           3.1580    -0.0680     1.2090 h4         1 CVE       0.153000
     49 H9          -4.7120     0.8030     0.7400 hn         1 CVE       0.315500
     50 H10          2.7000     0.9080    -1.4500 hn         1 CVE       0.319500
     51 H11          2.0390    -2.7900    -4.0950 ha         1 CVE       0.148500
     52 H12          3.2370    -2.8600    -6.2510 ha         1 CVE       0.144000
     53 H13          4.8870     1.0050    -5.4570 ha         1 CVE       0.144000
     54 H14          3.6810     1.0760    -3.3060 ha         1 CVE       0.148500
     55 H15          4.9110    -0.1440    -7.8120 hn         1 CVE       0.456800
     56 H16          6.3150    -1.3900    -9.5880 h4         1 CVE       0.033100
     57 H17          7.6470    -5.6810   -10.0710 ha         1 CVE       0.145000
     58 H18          7.4610    -7.7540    -8.7390 ha         1 CVE       0.134000
     59 H19          6.2690    -7.7290    -6.5700 ha         1 CVE       0.136000
     60 H20          5.2540    -5.6340    -5.7420 ha         1 CVE       0.154000
     61 H21         -3.8860     2.9360    -1.0940 h1         1 CVE       0.096700
     62 H22         -4.9470     4.7240     0.2210 h1         1 CVE       0.008700
     63 H23         -3.6180     3.9920     1.1310 h1         1 CVE       0.008700
     64 H25         -6.5840     2.0210    -0.0460 hc         1 CVE       0.037200
     65 H26         -6.3730     3.3440    -1.2010 hc         1 CVE       0.037200
     66 H27         -5.7050     4.2810     2.2410 ho         1 CVE       0.378000
     67 C38         -5.8700     1.4080    -1.9720 c          1 CVE       0.891600
@<TRIPOS>BOND
     1    39    67 1
     2    37    67 1
     3    67    38 1
     4    40    36 1
     5    38    35 1
     6    33    32 ar
     7    33    34 ar
     8    36    35 1
     9    32    31 ar
    10    35    13 1
    11    34    29 ar
    12    31    30 ar
    13    14     6 2
    14    13     6 1
    15    29    30 ar
    16    29    28 ar
    17     6     4 1
    18    30    27 ar
    19    28    25 ar
    20     9     1 2
    21    27    26 ar
    22     4    12 1
    23     4     5 1
    24     1    12 1
    25     1    11 1
    26    12     2 1
    27    25    26 ar
    28    25    24 1
    29    22    23 ar
    30    22    21 ar
    31    23    17 ar
    32    11    15 1
    33    11    10 2
    34    15    16 1
    35     7     2 2
    36     2     3 1
    37    10     3 1
    38    24    21 1
    39     3     8 1
    40    21    20 ar
    41    17    16 1
    42    17    19 ar
    43    16    18 2
    44    20    19 ar
    45     4    41 1
    46     5    42 1
    47     5    43 1
    48     5    44 1
    49     8    45 1
    50     8    46 1
    51     8    47 1
    52    10    48 1
    53    13    49 1
    54    15    50 1
    55    19    51 1
    56    20    52 1
    57    22    53 1
    58    23    54 1
    59    24    55 1
    60    26    56 1
    61    31    57 1
    62    32    58 1
    63    33    59 1
    64    34    60 1
    65    35    61 1
    66    36    62 1
    67    36    63 1
    68    38    64 1
    69    38    65 1
    70    40    66 1
@<TRIPOS>SUBSTRUCTURE
     1 CVE         1 TEMP              0 ****  ****    0 ROOT
