@<TRIPOS>MOLECULE
molecule
   37    38     1     0     0
SMALL
bcc


@<TRIPOS>ATOM
      1 N            0.0000     0.0000     0.0000 ns         1 CVF      -0.590900
      2 C            2.1010     0.0060    -1.3050 c3         1 CVF      -0.173100
      3 O           -7.1940     2.4610     9.6110 o          1 CVF      -0.835800
      4 C1           1.3480     0.0000     0.0000 c          1 CVF       0.652100
      5 C10         -5.1140     0.0010     5.9800 cp         1 CVF      -0.090000
      6 C11         -5.4580    -1.2060     6.5870 ca         1 CVF      -0.136000
      7 C12         -6.1440    -1.2090     7.7860 ca         1 CVF      -0.166000
      8 C13         -6.4920    -0.0190     8.3930 ca         1 CVF      -0.082000
      9 C14         -6.1530     1.1970     7.7940 ca         1 CVF      -0.106600
     10 C15         -6.5260     2.4710     8.4420 c          1 CVF       0.883200
     11 C16         -5.4600     1.2050     6.5830 ca         1 CVF      -0.085000
     12 C2          -0.7320     0.0000     1.2690 c3         1 CVF       0.112000
     13 C3          -2.2370     0.0000     0.9900 c3         1 CVF      -0.046100
     14 C4          -2.9890     0.0010     2.2950 ca         1 CVF      -0.116300
     15 C5          -3.3290    -1.1990     2.8960 ca         1 CVF      -0.123000
     16 C6          -4.0180    -1.2040     4.0910 ca         1 CVF      -0.129000
     17 C7          -3.3340     1.2000     2.8930 ca         1 CVF      -0.123000
     18 C8          -4.0220     1.2060     4.0880 ca         1 CVF      -0.129000
     19 C9          -4.3720     0.0010     4.6940 cp         1 CVF       0.007000
     20 O1          -6.2310     3.5270     7.9190 o          1 CVF      -0.835800
     21 O2           1.9550    -0.0060     1.0500 o          1 CVF      -0.608100
     22 H3          -0.5000     0.0220    -0.8660 hn         1 CVF       0.307500
     23 H2           1.8460     0.8970    -1.8650 hc         1 CVF       0.056033
     24 H1           3.1660    -0.0050    -1.1070 hc         1 CVF       0.056033
     25 H            1.8320    -0.8720    -1.8810 hc         1 CVF       0.056033
     26 H12         -5.1870    -2.1430     6.1170 ha         1 CVF       0.106000
     27 H13         -6.4080    -2.1500     8.2530 ha         1 CVF       0.107000
     28 H14         -7.0300    -0.0280     9.3330 ha         1 CVF       0.155000
     29 H15         -5.1950     2.1440     6.1140 ha         1 CVF       0.148000
     30 H4          -0.4700     0.8840     1.8370 h1         1 CVF       0.060200
     31 H5          -0.4700    -0.8850     1.8370 h1         1 CVF       0.060200
     32 H7          -2.4990    -0.8840     0.4230 hc         1 CVF       0.042700
     33 H6          -2.4990     0.8850     0.4220 hc         1 CVF       0.042700
     34 H8          -3.0610    -2.1350     2.4220 ha         1 CVF       0.119500
     35 H9          -4.3370    -2.1430     4.5280 ha         1 CVF       0.143000
     36 H10         -3.0680     2.1360     2.4170 ha         1 CVF       0.119500
     37 H11         -4.3520     2.1440     4.5180 ha         1 CVF       0.143000
@<TRIPOS>BOND
     1    12    13 1
     2    12     1 1
     3    13    14 1
     4    14    17 ar
     5    14    15 ar
     6     1     4 1
     7    17    18 ar
     8    15    16 ar
     9    21     4 2
    10    18    19 ar
    11     4     2 1
    12    16    19 ar
    13    20    10 1
    14    19     5 1
    15    11     5 ar
    16    11     9 ar
    17     5     6 ar
    18    10     9 1
    19    10     3 1
    20     9     8 ar
    21     6     7 ar
    22     8     7 ar
    23     1    22 1
    24     2    23 1
    25     2    24 1
    26     2    25 1
    27     6    26 1
    28     7    27 1
    29     8    28 1
    30    11    29 1
    31    12    30 1
    32    12    31 1
    33    13    32 1
    34    13    33 1
    35    15    34 1
    36    16    35 1
    37    17    36 1
    38    18    37 1
@<TRIPOS>SUBSTRUCTURE
     1 CVF         1 TEMP              0 ****  ****    0 ROOT
