@<TRIPOS>MOLECULE
molecule
   14    14     1     0     0
SMALL
bcc


@<TRIPOS>ATOM
      1 C4           0.0000     0.0000     0.0000 ca         1 CVG      -0.193300
      2 C3           1.3870     0.0000     0.0000 ca         1 CVG      -0.218300
      3 C2           2.0380     0.0000     1.2300 ca         1 CVG       0.564600
      4 C1          -0.6530     0.0040     1.2240 ca         1 CVG       0.337600
      5 O            3.3940     0.0020     1.2840 oh         1 CVG      -0.614300
      6 N1           1.3290    -0.0010     2.3490 nb         1 CVG      -0.361000
      7 N            0.0460     0.0090     2.3420 nb         1 CVG      -0.292000
      8 C           -2.1580     0.0180     1.2750 c3         1 CVG      -0.136400
      9 H5          -0.5570    -0.0020    -0.9290 ha         1 CVG       0.150000
     10 H4           1.9460    -0.0030    -0.9280 ha         1 CVG       0.158000
     11 H2          -2.5440    -0.8620     0.7760 hc         1 CVG       0.056033
     12 H1          -2.5280     0.9070     0.7790 hc         1 CVG       0.056033
     13 H           -2.4840     0.0190     2.3080 hc         1 CVG       0.056033
     14 H3           3.6900    -0.7420     1.7830 ho         1 CVG       0.438000
@<TRIPOS>BOND
     1     8     4 1
     2     4     7 ar
     3     4     1 ar
     4     7     6 ar
     5     1     2 ar
     6     6     3 ar
     7     2     3 ar
     8     3     5 1
     9     1     9 1
    10     2    10 1
    11     8    11 1
    12     8    12 1
    13     8    13 1
    14     5    14 1
@<TRIPOS>SUBSTRUCTURE
     1 CVG         1 TEMP              0 ****  ****    0 ROOT
