@<TRIPOS>MOLECULE
molecule
   58    60     1     0     0
SMALL
bcc


@<TRIPOS>ATOM
      1 C1           0.0000     0.0000     0.0000 ce         1 CVI       0.360600
      2 C2           1.4640     0.0000     0.0000 cd         1 CVI      -0.231333
      3 C3           2.1680     0.0000     1.2160 cd         1 CVI      -0.010167
      4 C4           3.5310    -0.0000     1.2120 cc         1 CVI      -0.314933
      5 C5           4.2280    -0.0000    -0.0000 cc         1 CVI       0.411900
      6 C6           3.5310     0.0060    -1.2130 cc         1 CVI      -0.314933
      7 C7           2.1670     0.0010    -1.2160 cd         1 CVI      -0.010167
      8 C8          -0.7320    -1.1490    -0.5370 ca         1 CVI      -0.243133
      9 C9          -1.5290    -1.0020    -1.6840 ca         1 CVI      -0.010167
     10 C10         -2.2090    -2.0740    -2.1810 ca         1 CVI      -0.228333
     11 C11         -2.1130    -3.3190    -1.5500 ca         1 CVI       0.265600
     12 C12         -1.3210    -3.4680    -0.4060 ca         1 CVI      -0.228333
     13 C13         -0.6340    -2.4020     0.0920 ca         1 CVI      -0.010167
     14 C14         -0.7320     1.1490     0.5370 ca         1 CVI      -0.243133
     15 C15         -2.1370     1.1510     0.5370 ca         1 CVI      -0.010167
     16 C16         -2.8150     2.2210     1.0380 ca         1 CVI      -0.228333
     17 C17         -2.1150     3.3180     1.5490 ca         1 CVI       0.265600
     18 C18         -0.7160     3.3200     1.5500 ca         1 CVI      -0.228333
     19 C19         -0.0320     2.2500     1.0560 ca         1 CVI      -0.010167
     20 C20          6.3320    -0.0010     1.2690 c3         1 CVI       0.034100
     21 C21          6.3310     0.0000    -1.2700 c3         1 CVI       0.034100
     22 C22         -3.7300    -4.2130    -3.1680 c3         1 CVI       0.211600
     23 C23         -2.6010    -5.7240    -1.4720 c3         1 CVI       0.211600
     24 C24         -4.2600     4.3450     2.1630 c3         1 CVI       0.211600
     25 C25         -2.0730     5.5920     2.4770 c3         1 CVI       0.211600
     26 N1           5.5990    -0.0000    -0.0000 nh         1 CVI      -0.299767
     27 N2          -2.7990    -4.3940    -2.0510 nh         1 CVI      -0.681667
     28 N3          -2.8010     4.3940     2.0520 nh         1 CVI      -0.681667
     29 H31          1.6280    -0.0000     2.1550 ha         1 CVI       0.147667
     30 H41          4.0750    -0.0030     2.1490 ha         1 CVI       0.154000
     31 H61          4.0740     0.0070    -2.1500 ha         1 CVI       0.154000
     32 H71          1.6270     0.0060    -2.1550 ha         1 CVI       0.147667
     33 H91         -1.6040    -0.0380    -2.1730 ha         1 CVI       0.147667
     34 H101        -2.8240    -1.9610    -3.0650 ha         1 CVI       0.154000
     35 H121        -1.2470    -4.4330     0.0790 ha         1 CVI       0.154000
     36 H131        -0.0210    -2.5180     0.9770 ha         1 CVI       0.147667
     37 H151        -2.6810     0.3010     0.1410 ha         1 CVI       0.147667
     38 H161        -3.8990     2.2220     1.0380 ha         1 CVI       0.154000
     39 H181        -0.1760     4.1700     1.9490 ha         1 CVI       0.154000
     40 H191         1.0520     2.2520     1.0570 ha         1 CVI       0.147667
     41 H201         6.0700     0.8830     1.8370 h1         1 CVI       0.052922
     42 H202         7.3970    -0.0010     1.0710 h1         1 CVI       0.052922
     43 H203         6.0700    -0.8860     1.8360 h1         1 CVI       0.052922
     44 H211         7.3970    -0.0030    -1.0720 h1         1 CVI       0.052922
     45 H212         6.0670    -0.8830    -1.8390 h1         1 CVI       0.052922
     46 H213         6.0720     0.8860    -1.8360 h1         1 CVI       0.052922
     47 H221        -4.2120    -5.1570    -3.3930 h1         1 CVI       0.052922
     48 H222        -3.1860    -3.8690    -4.0400 h1         1 CVI       0.052922
     49 H223        -4.4800    -3.4800    -2.8980 h1         1 CVI       0.052922
     50 H231        -1.5520    -5.9880    -1.5230 h1         1 CVI       0.052922
     51 H232        -3.1840    -6.4500    -2.0260 h1         1 CVI       0.052922
     52 H233        -2.9220    -5.7180    -0.4370 h1         1 CVI       0.052922
     53 H241        -4.5470     3.4990     2.7750 h1         1 CVI       0.052922
     54 H242        -4.6940     4.2400     1.1750 h1         1 CVI       0.052922
     55 H243        -4.6180     5.2600     2.6190 h1         1 CVI       0.052922
     56 H251        -2.7790     6.3480     2.7990 h1         1 CVI       0.052922
     57 H252        -1.4130     5.3420     3.2980 h1         1 CVI       0.052922
     58 H253        -1.4900     5.9730     1.6470 h1         1 CVI       0.052922
@<TRIPOS>BOND
     1     1     2 2
     2     1     8 1
     3     1    14 1
     4     2     3 1
     5     2     7 1
     6     3     4 2
     7     3    29 1
     8     4     5 1
     9     4    30 1
    10     5     6 1
    11     5    26 2
    12     6     7 2
    13     6    31 1
    14     7    32 1
    15     8     9 ar
    16     8    13 ar
    17     9    10 ar
    18     9    33 1
    19    10    11 ar
    20    10    34 1
    21    11    12 ar
    22    11    27 1
    23    12    13 ar
    24    12    35 1
    25    13    36 1
    26    14    15 ar
    27    14    19 ar
    28    15    16 ar
    29    15    37 1
    30    16    17 ar
    31    16    38 1
    32    17    18 ar
    33    17    28 1
    34    18    19 ar
    35    18    39 1
    36    19    40 1
    37    20    26 1
    38    20    41 1
    39    20    42 1
    40    20    43 1
    41    21    26 1
    42    21    44 1
    43    21    45 1
    44    21    46 1
    45    22    27 1
    46    22    47 1
    47    22    48 1
    48    22    49 1
    49    23    27 1
    50    23    50 1
    51    23    51 1
    52    23    52 1
    53    24    28 1
    54    24    53 1
    55    24    54 1
    56    24    55 1
    57    25    28 1
    58    25    56 1
    59    25    57 1
    60    25    58 1
@<TRIPOS>SUBSTRUCTURE
     1 CVI         1 TEMP              0 ****  ****    0 ROOT
