@<TRIPOS>MOLECULE
molecule
   48    50     1     0     0
SMALL
bcc


@<TRIPOS>ATOM
      1 C1           0.0000     0.0000     0.0000 ca         1 CVJ      -0.140000
      2 C2           1.3890     0.0000     0.0000 ca         1 CVJ       0.053600
      3 C3           2.0800     0.0000     1.2040 ca         1 CVJ      -0.140000
      4 C11         -2.4400     1.4450     4.6980 c          1 CVJ       0.656100
      5 C12         -3.6350     2.3570     4.5870 c3         1 CVJ      -0.160400
      6 C14         -4.0290     2.8530     5.9800 c3         1 CVJ      -0.076100
      7 C15          3.2550     0.6710    -1.3150 c          1 CVJ       0.695100
      8 C16          3.9580     0.7580    -2.6450 cx         1 CVJ      -0.227700
      9 C18          5.2750     1.5360    -2.6990 cx         1 CVJ      -0.047400
     10 C19          6.3440     1.0290    -3.6310 ca         1 CVJ      -0.180600
     11 C20          7.5820     0.6470    -3.1370 ca         1 CVJ      -0.079000
     12 C21          8.5360     0.1870    -4.0330 ca         1 CVJ      -0.251300
     13 C22          8.2230     0.1240    -5.3780 ca         1 CVJ       0.417200
     14 C24          6.1020     0.9330    -4.9890 ca         1 CVJ       0.415200
     15 C25          4.0100     2.1260    -3.3280 cx         1 CVJ      -0.107400
     16 C4           1.3840     0.0000     2.3980 ca         1 CVJ      -0.107500
     17 C5           0.0010    -0.0000     2.3940 ca         1 CVJ      -0.112300
     18 C6          -0.6900    -0.0000     1.1960 ca         1 CVJ      -0.107500
     19 C7          -0.7540    -0.0020     3.6980 c3         1 CVJ       0.163000
     20 N8           2.0900     0.0000    -1.2110 ns         1 CVJ      -0.473100
     21 N9          -1.9150     0.8860     3.5900 ns         1 CVJ      -0.586900
     22 C10         -1.2260    -1.4220     4.0130 c3         1 CVJ      -0.103100
     23 O13         -1.9530     1.2130     5.7840 o          1 CVJ      -0.609100
     24 O17          3.7370     1.2040    -0.3380 o          1 CVJ      -0.595100
     25 N23          7.0350     0.4960    -5.8120 nb         1 CVJ      -0.686000
     26 H1          -0.5420    -0.0000    -0.9380 ha         1 CVJ       0.149000
     27 H2           3.1630     0.0000     1.2080 ha         1 CVJ       0.149000
     28 H3          -3.3850     3.2040     3.9600 hc         1 CVJ       0.056700
     29 H4          -4.4640     1.8150     4.1480 hc         1 CVJ       0.056700
     30 H5          -3.1950     3.3830     6.4240 hc         1 CVJ       0.043700
     31 H6          -4.2920     2.0060     6.6040 hc         1 CVJ       0.043700
     32 H7          -4.8790     3.5190     5.8990 hc         1 CVJ       0.043700
     33 H8           3.9020    -0.0850    -3.3230 hc         1 CVJ       0.094700
     34 H9           5.5700     1.9930    -1.7620 hc         1 CVJ       0.116700
     35 H10          7.7990     0.7070    -2.0780 ha         1 CVJ       0.145000
     36 H11          9.5140    -0.1200    -3.6830 ha         1 CVJ       0.141000
     37 H12          8.9640    -0.2320    -6.0840 h4         1 CVJ       0.024100
     38 H13          5.1370     1.2290    -5.3830 h4         1 CVJ       0.022100
     39 H14          3.5510     2.9400    -2.7800 hc         1 CVJ       0.087200
     40 H15          3.9750     2.1090    -4.4110 hc         1 CVJ       0.087200
     41 H16          1.9230     0.0000     3.3380 ha         1 CVJ       0.134500
     42 H17         -1.7730    -0.0000     1.1960 ha         1 CVJ       0.134500
     43 H18         -0.1050     0.3480     4.4920 h1         1 CVJ       0.085700
     44 H19          1.7330    -0.5080    -1.9960 hn         1 CVJ       0.327500
     45 H20         -2.2910     1.1100     2.6900 hn         1 CVJ       0.313500
     46 H21         -0.8940    -1.7010     5.0060 hc         1 CVJ       0.045033
     47 H22         -2.3080    -1.4620     3.9700 hc         1 CVJ       0.045033
     48 H23         -0.8100    -2.1100     3.2870 hc         1 CVJ       0.045033
@<TRIPOS>BOND
     1    14    25 ar
     2    14    10 ar
     3    25    13 ar
     4    15     9 1
     5    15     8 1
     6     9    10 1
     7     9     8 1
     8    10    11 ar
     9    13    12 ar
    10    24     7 2
    11     8     7 1
    12    11    12 ar
    13     7    20 1
    14    20     2 1
    15     3     2 ar
    16     3    16 ar
    17     2     1 ar
    18    16    17 ar
    19     1    18 ar
    20    17    18 ar
    21    17    19 1
    22    22    19 1
    23    19    21 1
    24    21     4 1
    25    23     4 2
    26     4     5 1
    27     5     6 1
    28     1    26 1
    29     3    27 1
    30     5    28 1
    31     5    29 1
    32     6    30 1
    33     6    31 1
    34     6    32 1
    35     8    33 1
    36     9    34 1
    37    11    35 1
    38    12    36 1
    39    13    37 1
    40    14    38 1
    41    15    39 1
    42    15    40 1
    43    16    41 1
    44    18    42 1
    45    19    43 1
    46    20    44 1
    47    21    45 1
    48    22    46 1
    49    22    47 1
    50    22    48 1
@<TRIPOS>SUBSTRUCTURE
     1 CVJ         1 TEMP              0 ****  ****    0 ROOT
