@<TRIPOS>MOLECULE
CVJ
   48    50     1     0     0
SMALL
bcc


@<TRIPOS>ATOM
      1 C1           0.0000     0.0000     0.0000 ca         1 CVJ      -0.113000
      2 C2           1.3890     0.0000     0.0000 ca         1 CVJ      -0.092400
      3 C3           2.0800     0.0000     1.2040 ca         1 CVJ      -0.113000
      4 C11         -2.4400     1.4450     4.6980 c          1 CVJ       0.573100
      5 C12         -3.6350     2.3570     4.5870 c3         1 CVJ      -0.097400
      6 C14         -4.0290     2.8530     5.9800 c3         1 CVJ       0.021900
      7 C15          3.2550     0.6710    -1.3150 c          1 CVJ       0.601100
      8 C16          3.9580     0.7580    -2.6450 cx         1 CVJ      -0.211700
      9 C18          5.2750     1.5360    -2.6990 cx         1 CVJ      -0.012400
     10 C19          6.3440     1.0290    -3.6310 ca         1 CVJ      -0.177600
     11 C20          7.5820     0.6470    -3.1370 ca         1 CVJ      -0.055000
     12 C21          8.5360     0.1870    -4.0330 ca         1 CVJ      -0.218300
     13 C22          8.2230     0.1240    -5.3780 ca         1 CVJ       0.400200
     14 C24          6.1020     0.9330    -4.9890 ca         1 CVJ       0.390200
     15 C25          4.0100     2.1260    -3.3280 cx         1 CVJ      -0.056400
     16 C4           1.3840     0.0000     2.3980 ca         1 CVJ      -0.077500
     17 C5           0.0010    -0.0000     2.3940 ca         1 CVJ      -0.118300
     18 C6          -0.6900    -0.0000     1.1960 ca         1 CVJ      -0.077500
     19 C7          -0.7540    -0.0020     3.6980 c3         1 CVJ       0.081000
     20 N8           2.0900     0.0000    -1.2110 ns         1 CVJ      -0.026100
     21 N9          -1.9150     0.8860     3.5900 ns         1 CVJ      -0.208900
     22 C10         -1.2260    -1.4220     4.0130 c3         1 CVJ      -0.013100
     23 O13         -1.9530     1.2130     5.7840 o          1 CVJ      -0.646100
     24 O17          3.7370     1.2040    -0.3380 o          1 CVJ      -0.636100
     25 N23          7.0350     0.4960    -5.8120 nb         1 CVJ      -0.578000
     26 H1          -0.5420    -0.0000    -0.9380 ha         1 CVJ       0.127000
     27 H2           3.1630     0.0000     1.2080 ha         1 CVJ       0.127000
     28 H3          -3.3850     3.2040     3.9600 hc         1 CVJ       0.023200
     29 H4          -4.4640     1.8150     4.1480 hc         1 CVJ       0.023200
     30 H5          -3.1950     3.3830     6.4240 hc         1 CVJ       0.008700
     31 H6          -4.2920     2.0060     6.6040 hc         1 CVJ       0.008700
     32 H7          -4.8790     3.5190     5.8990 hc         1 CVJ       0.008700
     33 H8           3.9020    -0.0850    -3.3230 hc         1 CVJ       0.069700
     34 H9           5.5700     1.9930    -1.7620 hc         1 CVJ       0.089700
     35 H10          7.7990     0.7070    -2.0780 ha         1 CVJ       0.116000
     36 H11          9.5140    -0.1200    -3.6830 ha         1 CVJ       0.114000
     37 H12          8.9640    -0.2320    -6.0840 h4         1 CVJ      -0.019900
     38 H13          5.1370     1.2290    -5.3830 h4         1 CVJ      -0.013900
     39 H14          3.5510     2.9400    -2.7800 hc         1 CVJ       0.056700
     40 H15          3.9750     2.1090    -4.4110 hc         1 CVJ       0.056700
     41 H16          1.9230     0.0000     3.3380 ha         1 CVJ       0.109000
     42 H17         -1.7730    -0.0000     1.1960 ha         1 CVJ       0.109000
     43 H18         -0.1050     0.3480     4.4920 h1         1 CVJ       0.060700
     44 H19          1.7330    -0.5080    -1.9960 hn         1 CVJ       0.169500
     45 H20         -2.2910     1.1100     2.6900 hn         1 CVJ       0.179500
     46 H21         -0.8940    -1.7010     5.0060 hc         1 CVJ       0.013033
     47 H22         -2.3080    -1.4620     3.9700 hc         1 CVJ       0.013033
     48 H23         -0.8100    -2.1100     3.2870 hc         1 CVJ       0.013033
@<TRIPOS>BOND
     1     1     2 ar  
     2     1    18 ar  
     3     1    26 1   
     4     2     3 ar  
     5     2    20 1   
     6     3    16 ar  
     7     3    27 1   
     8     4     5 1   
     9     4    21 1   
    10     4    23 2   
    11     5     6 1   
    12     5    28 1   
    13     5    29 1   
    14     6    30 1   
    15     6    31 1   
    16     6    32 1   
    17     7     8 1   
    18     7    20 1   
    19     7    24 2   
    20     8     9 1   
    21     8    15 1   
    22     8    33 1   
    23     9    10 1   
    24     9    15 1   
    25     9    34 1   
    26    10    11 ar  
    27    10    14 ar  
    28    11    12 ar  
    29    11    35 1   
    30    12    13 ar  
    31    12    36 1   
    32    13    25 ar  
    33    13    37 1   
    34    14    25 ar  
    35    14    38 1   
    36    15    39 1   
    37    15    40 1   
    38    16    17 ar  
    39    16    41 1   
    40    17    18 ar  
    41    17    19 1   
    42    18    42 1   
    43    19    21 1   
    44    19    22 1   
    45    19    43 1   
    46    20    44 1   
    47    21    45 1   
    48    22    46 1   
    49    22    47 1   
    50    22    48 1   
@<TRIPOS>SUBSTRUCTURE
     1 CVJ         1 TEMP              0 ****  ****    0 ROOT
