@<TRIPOS>MOLECULE
CVK
   55    58     1     0     0
SMALL
bcc


@<TRIPOS>ATOM
      1 C29          0.0000     0.0000     0.0000 c3         1 CVK       0.248700
      2 O28          1.4300     0.0000     0.0000 os         1 CVK      -0.319900
      3 C15          2.0470     0.0000     1.2110 ca         1 CVK       0.080100
      4 C14          3.4400     0.0000     1.2840 ca         1 CVK       0.015600
      5 N17          4.2010    -0.0010     0.1110 nu         1 CVK      -0.223000
      6 C18          5.5870    -0.1610     0.1770 ca         1 CVK       0.015600
      7 C23          6.1390    -1.1030     1.0370 ca         1 CVK      -0.150000
      8 C22          7.5080    -1.2600     1.1000 ca         1 CVK      -0.077000
      9 C21          8.3330    -0.4780     0.3100 ca         1 CVK      -0.106000
     10 C20          7.7870     0.4610    -0.5450 ca         1 CVK      -0.064300
     11 C24          8.6890     1.3110    -1.4040 c3         1 CVK       0.209100
     12 N25          8.9220     0.6360    -2.6870 n3         1 CVK      -0.540600
     13 C27          7.6790     0.5450    -3.4670 c3         1 CVK       0.180100
     14 C26          9.9760     1.3110    -3.4550 c3         1 CVK       0.180100
     15 C19          6.4170     0.6180    -0.6190 ca         1 CVK      -0.141000
     16 C13          4.0710     0.0010     2.5200 ca         1 CVK      -0.167000
     17 C12          3.3230     0.0020     3.6800 ca         1 CVK      -0.070000
     18 C16          1.2950     0.0070     2.3710 ca         1 CVK      -0.157000
     19 C11          1.9310     0.0020     3.6120 cp         1 CVK      -0.039000
     20 C4           1.1270     0.0030     4.8580 cp         1 CVK      -0.023000
     21 C1           0.0970     0.9260     5.0250 ca         1 CVK      -0.102000
     22 C5           1.3970    -0.9270     5.8670 ca         1 CVK       0.075100
     23 O10          2.3970    -1.8310     5.6920 os         1 CVK      -0.289900
     24 C9           2.8770    -2.4950     6.8650 c3         1 CVK       0.163400
     25 C8           1.6660    -2.9640     7.6810 c3         1 CVK       0.170400
     26 O7           0.8870    -1.8130     8.0270 os         1 CVK      -0.301900
     27 C6           0.6400    -0.9190     7.0300 ca         1 CVK       0.069100
     28 C3          -0.3800     0.0090     7.1860 ca         1 CVK      -0.107000
     29 C2          -0.6500     0.9250     6.1850 ca         1 CVK      -0.103000
     30 H1          -0.3610     0.8990     0.4840 h1         1 CVK      -0.002967
     31 H2          -0.3610    -0.0300    -1.0210 h1         1 CVK      -0.002967
     32 H3          -0.3610    -0.8690     0.5360 h1         1 CVK      -0.002967
     33 H4           3.7510     0.0960    -0.7780 hn         1 CVK       0.294800
     34 H5           5.4940    -1.7160     1.6560 ha         1 CVK       0.127000
     35 H6           7.9390    -1.9940     1.7700 ha         1 CVK       0.102000
     36 H7           9.4080    -0.6020     0.3620 ha         1 CVK       0.109000
     37 H8           8.2200     2.2710    -1.5800 h1         1 CVK       0.012200
     38 H9           9.6350     1.4590    -0.8970 h1         1 CVK       0.012200
     39 H11          7.0790     1.4300    -3.2940 h1         1 CVK       0.001867
     40 H12          7.1240    -0.3330    -3.1620 h1         1 CVK       0.001867
     41 H13          7.9190     0.4720    -4.5210 h1         1 CVK       0.001867
     42 H14         10.1630     0.7640    -4.3710 h1         1 CVK       0.001867
     43 H15          9.6590     2.3190    -3.6950 h1         1 CVK       0.001867
     44 H16         10.8840     1.3490    -2.8650 h1         1 CVK       0.001867
     45 H17          5.9910     1.3540    -1.2890 ha         1 CVK       0.113000
     46 H18          5.1530     0.0010     2.5750 ha         1 CVK       0.137000
     47 H19          3.8180     0.0010     4.6430 ha         1 CVK       0.111000
     48 H20          0.2130     0.0070     2.3170 ha         1 CVK       0.123000
     49 H21         -0.1180     1.6460     4.2440 ha         1 CVK       0.111000
     50 H22          3.4770    -3.3510     6.5800 h1         1 CVK       0.024700
     51 H23          3.4700    -1.8080     7.4560 h1         1 CVK       0.024700
     52 H24          1.0640    -3.6280     7.0720 h1         1 CVK       0.026200
     53 H25          2.0140    -3.4410     8.5900 h1         1 CVK       0.026200
     54 H26         -0.9700     0.0130     8.0940 ha         1 CVK       0.114000
     55 H27         -1.4500     1.6430     6.3130 ha         1 CVK       0.105000
@<TRIPOS>BOND
     1     1     2 1   
     2     1    30 1   
     3     1    31 1   
     4     1    32 1   
     5     2     3 1   
     6     3     4 ar  
     7     3    18 ar  
     8     4     5 1   
     9     4    16 ar  
    10     5     6 1   
    11     5    33 1   
    12     6     7 ar  
    13     6    15 ar  
    14     7     8 ar  
    15     7    34 1   
    16     8     9 ar  
    17     8    35 1   
    18     9    10 ar  
    19     9    36 1   
    20    10    11 1   
    21    10    15 ar  
    22    11    12 1   
    23    11    37 1   
    24    11    38 1   
    25    12    13 1   
    26    12    14 1   
    27    13    39 1   
    28    13    40 1   
    29    13    41 1   
    30    14    42 1   
    31    14    43 1   
    32    14    44 1   
    33    15    45 1   
    34    16    17 ar  
    35    16    46 1   
    36    17    19 ar  
    37    17    47 1   
    38    18    19 ar  
    39    18    48 1   
    40    19    20 1   
    41    20    21 ar  
    42    20    22 ar  
    43    21    29 ar  
    44    21    49 1   
    45    22    23 1   
    46    22    27 ar  
    47    23    24 1   
    48    24    25 1   
    49    24    50 1   
    50    24    51 1   
    51    25    26 1   
    52    25    52 1   
    53    25    53 1   
    54    26    27 1   
    55    27    28 ar  
    56    28    29 ar  
    57    28    54 1   
    58    29    55 1   
@<TRIPOS>SUBSTRUCTURE
     1 CVK         1 TEMP              0 ****  ****    0 ROOT
