@<TRIPOS>MOLECULE
molecule
   55    58     1     0     0
SMALL
bcc


@<TRIPOS>ATOM
      1 C29          0.0000     0.0000     0.0000 c3         1 CVK       0.133700
      2 O28          1.4300     0.0000     0.0000 os         1 CVK      -0.342900
      3 C15          2.0470     0.0000     1.2110 ca         1 CVK       0.070100
      4 C14          3.4400     0.0000     1.2840 ca         1 CVK       0.174600
      5 N17          4.2010    -0.0010     0.1110 nu         1 CVK      -0.679000
      6 C18          5.5870    -0.1610     0.1770 ca         1 CVK       0.163600
      7 C23          6.1390    -1.1030     1.0370 ca         1 CVK      -0.169000
      8 C22          7.5080    -1.2600     1.1000 ca         1 CVK      -0.110000
      9 C21          8.3330    -0.4780     0.3100 ca         1 CVK      -0.133000
     10 C20          7.7870     0.4610    -0.5450 ca         1 CVK      -0.057300
     11 C24          8.6890     1.3110    -1.4040 c3         1 CVK       0.208100
     12 N25          8.9220     0.6360    -2.6870 n3         1 CVK      -0.726600
     13 C27          7.6790     0.5450    -3.4670 c3         1 CVK       0.151100
     14 C26          9.9760     1.3110    -3.4550 c3         1 CVK       0.151100
     15 C19          6.4170     0.6180    -0.6190 ca         1 CVK      -0.164000
     16 C13          4.0710     0.0010     2.5200 ca         1 CVK      -0.178000
     17 C12          3.3230     0.0020     3.6800 ca         1 CVK      -0.091000
     18 C16          1.2950     0.0070     2.3710 ca         1 CVK      -0.167000
     19 C11          1.9310     0.0020     3.6120 cp         1 CVK      -0.046000
     20 C4           1.1270     0.0030     4.8580 cp         1 CVK      -0.024000
     21 C1           0.0970     0.9260     5.0250 ca         1 CVK      -0.123000
     22 C5           1.3970    -0.9270     5.8670 ca         1 CVK       0.069100
     23 O10          2.3970    -1.8310     5.6920 os         1 CVK      -0.312900
     24 C9           2.8770    -2.4950     6.8650 c3         1 CVK       0.095400
     25 C8           1.6660    -2.9640     7.6810 c3         1 CVK       0.100400
     26 O7           0.8870    -1.8130     8.0270 os         1 CVK      -0.323900
     27 C6           0.6400    -0.9190     7.0300 ca         1 CVK       0.063100
     28 C3          -0.3800     0.0090     7.1860 ca         1 CVK      -0.125000
     29 C2          -0.6500     0.9250     6.1850 ca         1 CVK      -0.131000
     30 H1          -0.3610     0.8990     0.4840 h1         1 CVK       0.040700
     31 H2          -0.3610    -0.0300    -1.0210 h1         1 CVK       0.040700
     32 H3          -0.3610    -0.8690     0.5360 h1         1 CVK       0.040700
     33 H4           3.7510     0.0960    -0.7780 hn         1 CVK       0.459800
     34 H5           5.4940    -1.7160     1.6560 ha         1 CVK       0.146000
     35 H6           7.9390    -1.9940     1.7700 ha         1 CVK       0.131000
     36 H7           9.4080    -0.6020     0.3620 ha         1 CVK       0.134000
     37 H8           8.2200     2.2710    -1.5800 h1         1 CVK       0.040200
     38 H9           9.6350     1.4590    -0.8970 h1         1 CVK       0.040200
     39 H11          7.0790     1.4300    -3.2940 h1         1 CVK       0.032367
     40 H12          7.1240    -0.3330    -3.1620 h1         1 CVK       0.032367
     41 H13          7.9190     0.4720    -4.5210 h1         1 CVK       0.032367
     42 H14         10.1630     0.7640    -4.3710 h1         1 CVK       0.032367
     43 H15          9.6590     2.3190    -3.6950 h1         1 CVK       0.032367
     44 H16         10.8840     1.3490    -2.8650 h1         1 CVK       0.032367
     45 H17          5.9910     1.3540    -1.2890 ha         1 CVK       0.133000
     46 H18          5.1530     0.0010     2.5750 ha         1 CVK       0.154000
     47 H19          3.8180     0.0010     4.6430 ha         1 CVK       0.140000
     48 H20          0.2130     0.0070     2.3170 ha         1 CVK       0.139000
     49 H21         -0.1180     1.6460     4.2440 ha         1 CVK       0.139000
     50 H22          3.4770    -3.3510     6.5800 h1         1 CVK       0.067200
     51 H23          3.4700    -1.8080     7.4560 h1         1 CVK       0.067200
     52 H24          1.0640    -3.6280     7.0720 h1         1 CVK       0.069200
     53 H25          2.0140    -3.4410     8.5900 h1         1 CVK       0.069200
     54 H26         -0.9700     0.0130     8.0940 ha         1 CVK       0.144000
     55 H27         -1.4500     1.6430     6.3130 ha         1 CVK       0.135000
@<TRIPOS>BOND
     1    28    29 ar
     2    28    27 ar
     3    26    27 1
     4    26    25 1
     5    29    21 ar
     6    27    22 ar
     7    25    24 1
     8    21    20 ar
     9    22    20 ar
    10    22    23 1
    11    20    19 1
    12    24    23 1
    13    17    19 ar
    14    17    16 ar
    15    19    18 ar
    16    16     4 ar
    17    18     3 ar
    18    14    12 1
    19     4     3 ar
    20     4     5 1
    21     8     7 ar
    22     8     9 ar
    23     7     6 ar
    24     3     2 1
    25    13    12 1
    26     9    10 ar
    27     6     5 1
    28     6    15 ar
    29    12    11 1
    30    10    15 ar
    31    10    11 1
    32     2     1 1
    33     1    30 1
    34     1    31 1
    35     1    32 1
    36     5    33 1
    37     7    34 1
    38     8    35 1
    39     9    36 1
    40    11    37 1
    41    11    38 1
    42    13    39 1
    43    13    40 1
    44    13    41 1
    45    14    42 1
    46    14    43 1
    47    14    44 1
    48    15    45 1
    49    16    46 1
    50    17    47 1
    51    18    48 1
    52    21    49 1
    53    24    50 1
    54    24    51 1
    55    25    52 1
    56    25    53 1
    57    28    54 1
    58    29    55 1
@<TRIPOS>SUBSTRUCTURE
     1 CVK         1 TEMP              0 ****  ****    0 ROOT
