@<TRIPOS>MOLECULE
CVL
   68    71     1     0     0
SMALL
bcc


@<TRIPOS>ATOM
      1 C1           0.0000     0.0000     0.0000 c3         1 CVL       0.241700
      2 O1           1.4280     0.0000     0.0000 os         1 CVL      -0.291900
      3 C2           2.0460     0.0000     1.2110 ca         1 CVL       0.132100
      4 C3           1.2890    -0.0020     2.3730 ca         1 CVL      -0.182000
      5 C4           1.9090    -0.0030     3.6040 ca         1 CVL      -0.092000
      6 C5           3.3040    -0.0030     3.6830 ca         1 CVL      -0.106900
      7 C6           3.9700    -0.0040     4.9990 ce         1 CVL       0.401900
      8 N1           5.2460    -0.0040     5.2160 n2         1 CVL      -0.512300
      9 N2           5.5620    -0.0050     6.5720 n          1 CVL       0.075200
     10 C7           6.9260    -0.0100     7.1030 c3         1 CVL       0.050700
     11 C8           7.6610    -1.2580     6.6110 c3         1 CVL      -0.013100
     12 C9           7.6660     1.2400     6.6210 c3         1 CVL      -0.013100
     13 C10          4.4480    -0.0070     7.3330 c          1 CVL       0.620500
     14 O2           4.3850    -0.0070     8.5450 o          1 CVL      -0.635500
     15 C11          3.2920    -0.0000     6.3530 c3         1 CVL      -0.237300
     16 C12          2.4360    -1.2570     6.5220 c3         1 CVL       0.022400
     17 C13          2.4410     1.2590     6.5330 c3         1 CVL       0.022400
     18 C14          4.0670    -0.0020     2.5120 ca         1 CVL      -0.147000
     19 C15          3.4370    -0.0060     1.2820 ca         1 CVL       0.114100
     20 O3           4.1770    -0.0050     0.1400 os         1 CVL      -0.292900
     21 C16          5.5980     0.0010     0.2880 c3         1 CVL       0.200400
     22 C17          6.2530     0.0010    -1.0950 c3         1 CVL      -0.029400
     23 C18          7.7750     0.0070    -0.9370 c3         1 CVL      -0.030400
     24 C19          8.4310     0.0070    -2.3190 c3         1 CVL       0.202400
     25 O4           9.8530     0.0120    -2.1720 os         1 CVL      -0.301900
     26 C20         10.5900     0.0120    -3.3130 ca         1 CVL       0.177100
     27 C21         11.9770     0.0170    -3.2400 ca         1 CVL      -0.179000
     28 C22         12.7300     0.0190    -4.3960 ca         1 CVL      -0.025000
     29 C23         12.0960     0.0150    -5.6390 ca         1 CVL      -0.190500
     30 C24         12.8990     0.0160    -6.8800 cc         1 CVL       0.320000
     31 N3          12.4220     0.0130    -8.1500 na         1 CVL       0.282600
     32 N4          13.5630     0.0160    -8.9720 nc         1 CVL      -0.401800
     33 N5          14.5870     0.0220    -8.1920 nd         1 CVL       0.036000
     34 N6          14.2140     0.0260    -6.9620 nd         1 CVL      -0.399000
     35 C25         10.7020     0.0090    -5.7080 ca         1 CVL      -0.025000
     36 C26          9.9570     0.0030    -4.5480 ca         1 CVL      -0.179000
     37 H1          -0.3610    -0.0030    -1.0210 h1         1 CVL      -0.001967
     38 H2          -0.3610     0.8860     0.5080 h1         1 CVL      -0.001967
     39 H3          -0.3610    -0.8830     0.5130 h1         1 CVL      -0.001967
     40 H4           0.2070    -0.0020     2.3140 ha         1 CVL       0.125000
     41 H5           1.3150    -0.0040     4.5100 ha         1 CVL       0.121000
     42 H8           6.8920    -0.0130     8.1860 h1         1 CVL       0.056700
     43 H9           7.0830    -2.1400     6.8630 hc         1 CVL       0.013033
     44 H10          8.6330    -1.3160     7.0860 hc         1 CVL       0.013033
     45 H11          7.7860    -1.2040     5.5370 hc         1 CVL       0.013033
     46 H12          7.0970     2.1220     6.8890 hc         1 CVL       0.013033
     47 H13          8.6420     1.2840     7.0870 hc         1 CVL       0.013033
     48 H14          7.7810     1.1980     5.5440 hc         1 CVL       0.013033
     49 H15          1.4190    -1.0450     6.2160 hc         1 CVL       0.016867
     50 H16          2.8390    -2.0530     5.9080 hc         1 CVL       0.016867
     51 H17          2.4450    -1.5630     7.5610 hc         1 CVL       0.016867
     52 H18          2.4400     1.5490     7.5760 hc         1 CVL       0.016867
     53 H19          1.4260     1.0580     6.2130 hc         1 CVL       0.016867
     54 H20          2.8550     2.0620     5.9350 hc         1 CVL       0.016867
     55 H21          5.1490    -0.0050     2.5690 ha         1 CVL       0.140000
     56 H22          5.9010     0.8870     0.8310 h1         1 CVL       0.005700
     57 H23          5.9080    -0.8820     0.8340 h1         1 CVL       0.005700
     58 H24          5.9500    -0.8860    -1.6390 hc         1 CVL       0.025700
     59 H25          5.9430     0.8830    -1.6420 hc         1 CVL       0.025700
     60 H26          8.0850    -0.8760    -0.3900 hc         1 CVL       0.026700
     61 H27          8.0780     0.8930    -0.3930 hc         1 CVL       0.026700
     62 H28          8.1280    -0.8800    -2.8630 h1         1 CVL       0.004700
     63 H29          8.1220     0.8890    -2.8660 h1         1 CVL       0.004700
     64 H30         12.4680     0.0200    -2.2740 ha         1 CVL       0.125000
     65 H31         13.8110     0.0230    -4.3380 ha         1 CVL       0.112000
     66 H32         11.4640     0.0090    -8.4390 hn         1 CVL       0.172700
     67 H33         10.2070     0.0040    -6.6710 ha         1 CVL       0.112000
     68 H34          8.8750    -0.0010    -4.6010 ha         1 CVL       0.125000
@<TRIPOS>BOND
     1     1     2 1   
     2     1    37 1   
     3     1    38 1   
     4     1    39 1   
     5     2     3 1   
     6     3     4 ar  
     7     3    19 ar  
     8     4     5 ar  
     9     4    40 1   
    10     5     6 ar  
    11     5    41 1   
    12     6     7 1   
    13     6    18 ar  
    14     7     8 2   
    15     7    15 1   
    16     8     9 1   
    17     9    10 1   
    18     9    13 1   
    19    10    11 1   
    20    10    12 1   
    21    10    42 1   
    22    11    43 1   
    23    11    44 1   
    24    11    45 1   
    25    12    46 1   
    26    12    47 1   
    27    12    48 1   
    28    13    14 2   
    29    13    15 1   
    30    15    16 1   
    31    15    17 1   
    32    16    49 1   
    33    16    50 1   
    34    16    51 1   
    35    17    52 1   
    36    17    53 1   
    37    17    54 1   
    38    18    19 ar  
    39    18    55 1   
    40    19    20 1   
    41    20    21 1   
    42    21    22 1   
    43    21    56 1   
    44    21    57 1   
    45    22    23 1   
    46    22    58 1   
    47    22    59 1   
    48    23    24 1   
    49    23    60 1   
    50    23    61 1   
    51    24    25 1   
    52    24    62 1   
    53    24    63 1   
    54    25    26 1   
    55    26    27 ar  
    56    26    36 ar  
    57    27    28 ar  
    58    27    64 1   
    59    28    29 ar  
    60    28    65 1   
    61    29    30 1   
    62    29    35 ar  
    63    30    31 1   
    64    30    34 2   
    65    31    32 1   
    66    31    66 1   
    67    32    33 2   
    68    33    34 1   
    69    35    36 ar  
    70    35    67 1   
    71    36    68 1   
@<TRIPOS>SUBSTRUCTURE
     1 CVL         1 TEMP              0 ****  ****    0 ROOT
