@<TRIPOS>MOLECULE
CVM
   73    75     1     0     0
SMALL
bcc


@<TRIPOS>ATOM
      1 C1         -0.1640   -0.0370    0.1170 c3        1 CVM      0.136400
      2 C2          1.3500   -0.1430    0.1000 c3        1 CVM     -0.085400
      3 C3          1.8950   -0.0820    1.5100 c3        1 CVM     -0.078400
      4 C4          3.4050   -0.1920    1.5100 c3        1 CVM     -0.075400
      5 C6          3.9910   -0.0970    2.9110 c3        1 CVM     -0.063700
      6 C7          5.4800    0.2160    2.8330 c3        1 CVM     -0.073400
      7 C8          6.1010    0.2970    4.2120 c3        1 CVM     -0.076400
      8 C9          5.8620   -0.9740    5.0010 c3        1 CVM     -0.076400
      9 C10         4.3840   -1.3010    5.0750 c3        1 CVM     -0.076400
     10 C11         3.7670   -1.3830    3.6940 c3        1 CVM     -0.073400
     11 O12        -0.5850   -0.1030   -1.2520 os        1 CVM     -0.423600
     12 C13        -1.9810   -0.0030   -1.4170 c3        1 CVM      0.307900
     13 O14        -2.4610   -1.2230   -0.8650 os        1 CVM     -0.446600
     14 C15        -3.8740   -1.3710   -1.0100 c3        1 CVM      0.107100
     15 C16        -4.2710   -1.4060   -2.4990 c3        1 CVM      0.126100
     16 C17        -3.7540   -0.1410   -3.2070 c3        1 CVM      0.121100
     17 C18        -2.2530    0.0510   -2.9310 c3        1 CVM      0.086100
     18 C19        -4.2230   -2.6830   -0.3000 c3        1 CVM      0.140400
     19 O20        -3.7920   -2.6620    1.0420 oh        1 CVM     -0.594800
     20 O21        -3.9460   -0.3190   -4.6010 oh        1 CVM     -0.605800
     21 O22        -1.9090    1.3220   -3.4520 oh        1 CVM     -0.604800
     22 O23        -5.7000   -1.4340   -2.4940 os        1 CVM     -0.431600
     23 C24        -6.2950   -1.8390   -3.7120 c3        1 CVM      0.336900
     24 O25        -6.1250   -3.2380   -3.8080 os        1 CVM     -0.449600
     25 C26        -6.7750   -4.0200   -2.8000 c3        1 CVM      0.102100
     26 C27        -8.2810   -3.7240   -2.7570 c3        1 CVM      0.126100
     27 C28        -8.4870   -2.2160   -2.5370 c3        1 CVM      0.066100
     28 C29        -7.7870   -1.4540   -3.6710 c3        1 CVM      0.098100
     29 C30        -6.5150   -5.4800   -3.1820 c3        1 CVM      0.140400
     30 O31        -5.1390   -5.7840   -3.1280 oh        1 CVM     -0.595800
     31 O32        -8.8240   -4.4660   -1.6790 oh        1 CVM     -0.592800
     32 O33        -9.8860   -1.9790   -2.5680 oh        1 CVM     -0.607800
     33 O34        -7.8760   -0.0560   -3.4770 oh        1 CVM     -0.576800
     34 H11C       -0.4990    0.9390    0.5590 h1        1 CVM      0.038200
     35 H12C       -0.6260   -0.8830    0.6890 h1        1 CVM      0.038200
     36 H21C        1.6490   -1.1050   -0.3910 hc        1 CVM      0.054700
     37 H22C        1.7760    0.6910   -0.5170 hc        1 CVM      0.054700
     38 H31C        1.4540   -0.9150    2.1200 hc        1 CVM      0.042200
     39 H32C        1.5870    0.8820    1.9930 hc        1 CVM      0.042200
     40 H41C        3.8310    0.6320    0.8780 hc        1 CVM      0.042200
     41 H42C        3.7130   -1.1630    1.0400 hc        1 CVM      0.042200
     42 H6          3.4820    0.7460    3.4600 hc        1 CVM      0.047700
     43 H71C        5.6300    1.1900    2.2980 hc        1 CVM      0.039450
     44 H72C        5.9940   -0.5810    2.2340 hc        1 CVM      0.039450
     45 H111        2.6680   -1.5790    3.7880 hc        1 CVM      0.039450
     46 H112        4.2180   -2.2430    3.1330 hc        1 CVM      0.039450
     47 H81C        7.2030    0.4770    4.1150 hc        1 CVM      0.038950
     48 H82C        5.6640    1.1680    4.7670 hc        1 CVM      0.038950
     49 H91C        6.4080   -1.8240    4.5140 hc        1 CVM      0.039200
     50 H92C        6.2740   -0.8570    6.0360 hc        1 CVM      0.039200
     51 H101        4.2420   -2.2780    5.6060 hc        1 CVM      0.038950
     52 H102        3.8570   -0.5120    5.6740 hc        1 CVM      0.038950
     53 H13        -2.4140    0.8810   -0.8740 h2        1 CVM      0.055700
     54 H18        -1.6600   -0.7540   -3.4480 h1        1 CVM      0.078700
     55 H15        -4.3930   -0.5090   -0.5040 h1        1 CVM      0.066700
     56 H16        -3.8680   -2.3230   -3.0070 h1        1 CVM      0.082700
     57 H191       -3.7730   -3.5520   -0.8480 h1        1 CVM      0.063700
     58 H192       -5.3400   -2.7870   -0.2520 h1        1 CVM      0.063700
     59 H17        -4.3300    0.7600   -2.8560 h1        1 CVM      0.070700
     60 H21        -3.5970    0.4750   -5.0290 ho        1 CVM      0.425000
     61 H22        -0.9620    1.4350   -3.2950 ho        1 CVM      0.424000
     62 H20        -2.8320   -2.5540    1.0310 ho        1 CVM      0.412000
     63 H24        -5.7780   -1.4150   -4.6190 h2        1 CVM      0.126700
     64 H29        -8.2450   -1.7430   -4.6600 h1        1 CVM      0.062700
     65 H26        -6.3110   -3.7880   -1.8020 h1        1 CVM      0.076700
     66 H27        -8.7750   -4.0350   -3.7190 h1        1 CVM      0.057700
     67 H301       -7.0030   -6.1490   -2.4230 h1        1 CVM      0.062200
     68 H302       -6.9230   -5.6880   -4.2060 h1        1 CVM      0.062200
     69 H28        -8.0530   -1.9060   -1.5460 h1        1 CVM      0.081700
     70 H32        -9.7470   -4.1900   -1.5990 ho        1 CVM      0.422000
     71 H33       -10.0340   -1.1370   -2.1200 ho        1 CVM      0.411000
     72 H34        -8.7940    0.1810   -3.6600 ho        1 CVM      0.404000
     73 H31        -4.6940   -5.1930   -3.7510 ho        1 CVM      0.410000
@<TRIPOS>BOND
     1    1    2 1   
     2    1   11 1   
     3    1   34 1   
     4    1   35 1   
     5    2    3 1   
     6    2   36 1   
     7    2   37 1   
     8    3    4 1   
     9    3   38 1   
    10    3   39 1   
    11    4    5 1   
    12    4   40 1   
    13    4   41 1   
    14    5    6 1   
    15    5   10 1   
    16    5   42 1   
    17    6    7 1   
    18    6   43 1   
    19    6   44 1   
    20    7    8 1   
    21    7   47 1   
    22    7   48 1   
    23    8    9 1   
    24    8   49 1   
    25    8   50 1   
    26    9   10 1   
    27    9   51 1   
    28    9   52 1   
    29   10   45 1   
    30   10   46 1   
    31   11   12 1   
    32   12   13 1   
    33   12   17 1   
    34   12   53 1   
    35   13   14 1   
    36   14   15 1   
    37   14   18 1   
    38   14   55 1   
    39   15   16 1   
    40   15   22 1   
    41   15   56 1   
    42   16   17 1   
    43   16   20 1   
    44   16   59 1   
    45   17   21 1   
    46   17   54 1   
    47   18   19 1   
    48   18   57 1   
    49   18   58 1   
    50   19   62 1   
    51   20   60 1   
    52   21   61 1   
    53   22   23 1   
    54   23   24 1   
    55   23   28 1   
    56   23   63 1   
    57   24   25 1   
    58   25   26 1   
    59   25   29 1   
    60   25   65 1   
    61   26   27 1   
    62   26   31 1   
    63   26   66 1   
    64   27   28 1   
    65   27   32 1   
    66   27   69 1   
    67   28   33 1   
    68   28   64 1   
    69   29   30 1   
    70   29   67 1   
    71   29   68 1   
    72   30   73 1   
    73   31   70 1   
    74   32   71 1   
    75   33   72 1   
@<TRIPOS>SUBSTRUCTURE
     1 CVM         1 TEMP              0 ****  ****    0 ROOT
