@<TRIPOS>MOLECULE
molecule
   73    75     1     0     0
SMALL
bcc


@<TRIPOS>ATOM
      1 C1           0.0000     0.0000     0.0000 c3         1 CVM       0.136400
      2 C2           1.5300     0.0000     0.0000 c3         1 CVM      -0.082400
      3 C3           2.0390     0.0000     1.4440 c3         1 CVM      -0.082400
      4 C4           3.5690     0.0010     1.4440 c3         1 CVM      -0.076400
      5 C6           4.0790     0.0010     2.8870 c3         1 CVM      -0.070700
      6 C7           5.6030     0.1270     2.8890 c3         1 CVM      -0.075400
      7 C8           6.1120     0.1270     4.3320 c3         1 CVM      -0.079400
      8 C9           5.7070    -1.1810     5.0160 c3         1 CVM      -0.079400
      9 C10          4.1830    -1.3070     5.0140 c3         1 CVM      -0.079400
     10 C11          3.6740    -1.3070     3.5710 c3         1 CVM      -0.075400
     11 O12         -0.4760    -0.0010    -1.3480 os         1 CVM      -0.407600
     12 C13         -1.9000    -0.0010    -1.4610 c3         1 CVM       0.336900
     13 O14         -2.4200    -1.2220    -0.9320 os         1 CVM      -0.428600
     14 C15         -3.8450    -1.3150    -0.9720 c3         1 CVM       0.165100
     15 C16         -4.3180    -1.2450    -2.4270 c3         1 CVM       0.113100
     16 C17         -3.8210     0.0620    -3.0540 c3         1 CVM       0.115100
     17 C18         -2.2950     0.1230    -2.9350 c3         1 CVM       0.097100
     18 C19         -4.2880    -2.6450    -0.3570 c3         1 CVM       0.148400
     19 O20         -3.9330    -2.6700     1.0270 oh         1 CVM      -0.605800
     20 O21         -4.1960     0.1030    -4.4330 oh         1 CVM      -0.610800
     21 O22         -1.8260     1.3710    -3.4510 oh         1 CVM      -0.600800
     22 O23         -5.7470    -1.2800    -2.4660 os         1 CVM      -0.425600
     23 C24         -6.2820    -1.7660    -3.6990 c3         1 CVM       0.320900
     24 O25         -6.0710    -3.1760    -3.7870 os         1 CVM      -0.419600
     25 C26         -6.6650    -3.9220    -2.7220 c3         1 CVM       0.139100
     26 C27         -8.1810    -3.7140    -2.7400 c3         1 CVM       0.108100
     27 C28         -8.4850    -2.2180    -2.6180 c3         1 CVM       0.113100
     28 C29         -7.7830    -1.4710    -3.7560 c3         1 CVM       0.123100
     29 C30         -6.3520    -5.4080    -2.9050 c3         1 CVM       0.149400
     30 O31         -4.9450    -5.6190    -2.7740 oh         1 CVM      -0.604800
     31 O32         -8.7720    -4.4130    -1.6420 oh         1 CVM      -0.602800
     32 O33         -9.8960    -2.0070    -2.7070 oh         1 CVM      -0.610800
     33 O34         -8.0000    -0.0660    -3.6100 oh         1 CVM      -0.585800
     34 H11C        -0.3610    -0.8840     0.5110 h1         1 CVM       0.036700
     35 H12C        -0.3610     0.8850     0.5100 h1         1 CVM       0.036700
     36 H21C         1.8910    -0.8850    -0.5110 hc         1 CVM       0.051700
     37 H22C         1.8910     0.8850    -0.5110 hc         1 CVM       0.051700
     38 H31C         1.6780    -0.8850     1.9540 hc         1 CVM       0.044200
     39 H32C         1.6780     0.8840     1.9540 hc         1 CVM       0.044200
     40 H41C         3.9300    -0.8840     0.9340 hc         1 CVM       0.042700
     41 H42C         3.9290     0.8850     0.9340 hc         1 CVM       0.042700
     42 H6           3.6490     0.8360     3.4260 hc         1 CVM       0.050700
     43 H71C         6.0350    -0.7120     2.3560 hc         1 CVM       0.041950
     44 H72C         5.8890     1.0540     2.4060 hc         1 CVM       0.041950
     45 H111         2.5940    -1.3940     3.5700 hc         1 CVM       0.041950
     46 H112         4.1090    -2.1420     3.0360 hc         1 CVM       0.041950
     47 H81C         5.6770     0.9630     4.8660 hc         1 CVM       0.039700
     48 H82C         7.1920     0.2140     4.3320 hc         1 CVM       0.039700
     49 H91C         6.1380    -2.0170     4.4780 hc         1 CVM       0.039700
     50 H92C         6.0670    -1.1790     6.0380 hc         1 CVM       0.039700
     51 H101         3.8970    -2.2340     5.4960 hc         1 CVM       0.039700
     52 H102         3.7520    -0.4680     5.5480 hc         1 CVM       0.039700
     53 H13         -2.3110     0.8350    -0.9080 h2         1 CVM       0.041700
     54 H18         -1.8570    -0.6940    -3.4960 h1         1 CVM       0.068700
     55 H15         -4.2750    -0.4920    -0.4140 h1         1 CVM       0.059700
     56 H16         -3.9150    -2.0850    -2.9780 h1         1 CVM       0.082700
     57 H191        -3.7950    -3.4620    -0.8710 h1         1 CVM       0.045700
     58 H192        -5.3610    -2.7500    -0.4570 h1         1 CVM       0.045700
     59 H17         -4.2570     0.9030    -2.5290 h1         1 CVM       0.061700
     60 H21         -4.2000     0.9980    -4.7300 ho         1 CVM       0.417000
     61 H22         -1.2200     1.2120    -4.1560 ho         1 CVM       0.415000
     62 H20         -4.2680    -3.4570     1.4230 ho         1 CVM       0.404000
     63 H24         -5.7880    -1.2760    -4.5300 h2         1 CVM       0.117700
     64 H29         -8.1800    -1.8070    -4.7070 h1         1 CVM       0.060700
     65 H26         -6.2660    -3.5780    -1.7760 h1         1 CVM       0.071700
     66 H27         -8.5850    -4.0880    -3.6730 h1         1 CVM       0.051700
     67 H301        -6.8740    -5.9830    -2.1500 h1         1 CVM       0.035700
     68 H302        -6.6740    -5.7270    -3.8890 h1         1 CVM       0.035700
     69 H28         -8.1190    -1.8520    -1.6670 h1         1 CVM       0.075700
     70 H32         -9.5610    -4.8410    -1.9300 ho         1 CVM       0.413000
     71 H33        -10.2030    -1.5970    -1.9150 ho         1 CVM       0.416000
     72 H34         -8.5360     0.2460    -4.3200 ho         1 CVM       0.408000
     73 H31         -4.7430    -6.5190    -2.9660 ho         1 CVM       0.405000
@<TRIPOS>BOND
     1     1     2 1
     2     1    11 1
     3     2     3 1
     4     3     4 1
     5     4     5 1
     6     5     6 1
     7     5    10 1
     8     6     7 1
     9     7     8 1
    10     8     9 1
    11     9    10 1
    12    11    12 1
    13    12    13 1
    14    12    17 1
    15    13    14 1
    16    14    15 1
    17    14    18 1
    18    15    16 1
    19    15    22 1
    20    16    17 1
    21    16    20 1
    22    17    21 1
    23    18    19 1
    24    22    23 1
    25    23    24 1
    26    23    28 1
    27    24    25 1
    28    25    26 1
    29    25    29 1
    30    26    27 1
    31    26    31 1
    32    27    28 1
    33    27    32 1
    34    28    33 1
    35    29    30 1
    36     1    34 1
    37     1    35 1
    38     2    36 1
    39     2    37 1
    40     3    38 1
    41     3    39 1
    42     4    40 1
    43     4    41 1
    44     5    42 1
    45     6    43 1
    46     6    44 1
    47    10    45 1
    48    10    46 1
    49     7    47 1
    50     7    48 1
    51     8    49 1
    52     8    50 1
    53     9    51 1
    54     9    52 1
    55    12    53 1
    56    17    54 1
    57    14    55 1
    58    15    56 1
    59    18    57 1
    60    18    58 1
    61    16    59 1
    62    20    60 1
    63    21    61 1
    64    19    62 1
    65    23    63 1
    66    28    64 1
    67    25    65 1
    68    26    66 1
    69    29    67 1
    70    29    68 1
    71    27    69 1
    72    31    70 1
    73    32    71 1
    74    33    72 1
    75    30    73 1
@<TRIPOS>SUBSTRUCTURE
     1 CVM         1 TEMP              0 ****  ****    0 ROOT
