@<TRIPOS>MOLECULE
CVN
   33    35     1     0     0
SMALL
bcc


@<TRIPOS>ATOM
      1 C01          0.0000     0.0000     0.0000 ca         1 CVN      -0.346600
      2 C02          1.4050     0.0000     0.0000 ca         1 CVN       0.189100
      3 C03         -0.6990     0.0010     1.2160 ca         1 CVN       0.148600
      4 C04          2.0870     0.0000     1.2110 ca         1 CVN      -0.176000
      5 C05          0.0060     0.0010     2.4100 ca         1 CVN      -0.253000
      6 C06          1.3900     0.0010     2.4010 ca         1 CVN       0.019000
      7 C07         -0.4220     0.0040    -1.4050 c          1 CVN       0.644100
      8 C11         -2.7820    -0.1570     2.4270 ca         1 CVN      -0.000400
      9 C12         -3.9000     0.6230     2.6950 ca         1 CVN      -0.053500
     10 C13         -2.3560    -1.0990     3.3560 ca         1 CVN      -0.053500
     11 C14         -4.5850     0.4600     3.8830 ca         1 CVN      -0.189800
     12 C15         -3.0460    -1.2560     4.5420 ca         1 CVN      -0.189800
     13 C16         -4.1590    -0.4790     4.8050 ca         1 CVN      -0.011000
     14 C18         -5.7980     1.3050     4.1750 c3         1 CVN       0.642200
     15 C22         -2.5850    -2.2770     5.5510 c3         1 CVN       0.642200
     16 F19         -6.9430     0.6580     3.6970 f          1 CVN      -0.204300
     17 F20         -5.9120     1.4960     5.5560 f          1 CVN      -0.204300
     18 F21         -5.6640     2.5460     3.5430 f          1 CVN      -0.204300
     19 F23         -1.9680    -3.3420     4.8870 f          1 CVN      -0.204300
     20 F24         -1.6740    -1.6840     6.4300 f          1 CVN      -0.204300
     21 F25         -3.6870    -2.7520     6.2700 f          1 CVN      -0.204300
     22 N08          0.7050     0.0010    -2.1480 ns         1 CVN      -0.047400
     23 N10         -2.0900     0.0020     1.2240 nu         1 CVN      -0.206000
     24 O09          1.8220    -0.0010    -1.2820 os         1 CVN      -0.167200
     25 O17         -1.5680     0.0110    -1.8200 o          1 CVN      -0.683500
     26 H1           3.1710    -0.0000     1.2200 ha         1 CVN       0.119000
     27 H2          -0.5280     0.0020     3.3520 ha         1 CVN       0.137000
     28 H3           1.9310     0.0010     3.3400 ha         1 CVN       0.106000
     29 H4          -4.2340     1.3580     1.9730 ha         1 CVN       0.137000
     30 H5          -1.4850    -1.7080     3.1510 ha         1 CVN       0.137000
     31 H6          -4.6980    -0.6040     5.7360 ha         1 CVN       0.134000
     32 H7           0.7430     0.0010    -3.1480 hn         1 CVN       0.224500
     33 H8          -2.5950     0.1120     0.3670 hn         1 CVN       0.323800
@<TRIPOS>BOND
     1     1     2 ar  
     2     1     3 ar  
     3     1     7 1   
     4     2     4 ar  
     5     2    24 1   
     6     3     5 ar  
     7     3    23 1   
     8     4     6 ar  
     9     4    26 1   
    10     5     6 ar  
    11     5    27 1   
    12     6    28 1   
    13     7    22 1   
    14     7    25 2   
    15     8     9 ar  
    16     8    10 ar  
    17     8    23 1   
    18     9    11 ar  
    19     9    29 1   
    20    10    12 ar  
    21    10    30 1   
    22    11    13 ar  
    23    11    14 1   
    24    12    13 ar  
    25    12    15 1   
    26    13    31 1   
    27    14    16 1   
    28    14    17 1   
    29    14    18 1   
    30    15    19 1   
    31    15    20 1   
    32    15    21 1   
    33    22    24 1   
    34    22    32 1   
    35    23    33 1   
@<TRIPOS>SUBSTRUCTURE
     1 CVN         1 TEMP              0 ****  ****    0 ROOT
