@<TRIPOS>MOLECULE
molecule
   33    35     1     0     0
SMALL
bcc


@<TRIPOS>ATOM
      1 C01          0.0000     0.0000     0.0000 ca         1 CVN      -0.319600
      2 C02          1.4050     0.0000     0.0000 ca         1 CVN       0.161100
      3 C03         -0.6990     0.0010     1.2160 ca         1 CVN       0.288600
      4 C04          2.0870     0.0000     1.2110 ca         1 CVN      -0.195000
      5 C05          0.0060     0.0010     2.4100 ca         1 CVN      -0.252000
      6 C06          1.3900     0.0010     2.4010 ca         1 CVN      -0.020000
      7 C07         -0.4220     0.0040    -1.4050 c          1 CVN       0.720100
      8 C11         -2.7820    -0.1570     2.4270 ca         1 CVN       0.152600
      9 C12         -3.9000     0.6230     2.6950 ca         1 CVN      -0.093500
     10 C13         -2.3560    -1.0990     3.3560 ca         1 CVN      -0.093500
     11 C14         -4.5850     0.4600     3.8830 ca         1 CVN      -0.164300
     12 C15         -3.0460    -1.2560     4.5420 ca         1 CVN      -0.164300
     13 C16         -4.1590    -0.4790     4.8050 ca         1 CVN      -0.059000
     14 C18         -5.7980     1.3050     4.1750 c3         1 CVN       0.677200
     15 C22         -2.5850    -2.2770     5.5510 c3         1 CVN       0.677200
     16 F19         -6.9430     0.6580     3.6970 f          1 CVN      -0.218633
     17 F20         -5.9120     1.4960     5.5560 f          1 CVN      -0.218633
     18 F21         -5.6640     2.5460     3.5430 f          1 CVN      -0.218633
     19 F23         -1.9680    -3.3420     4.8870 f          1 CVN      -0.218633
     20 F24         -1.6740    -1.6840     6.4300 f          1 CVN      -0.218633
     21 F25         -3.6870    -2.7520     6.2700 f          1 CVN      -0.218633
     22 N08          0.7050     0.0010    -2.1480 ns         1 CVN      -0.450400
     23 N10         -2.0900     0.0020     1.2240 nu         1 CVN      -0.664000
     24 O09          1.8220    -0.0010    -1.2820 os         1 CVN      -0.077200
     25 O17         -1.5680     0.0110    -1.8200 o          1 CVN      -0.633500
     26 H1           3.1710    -0.0000     1.2200 ha         1 CVN       0.148000
     27 H2          -0.5280     0.0020     3.3520 ha         1 CVN       0.153000
     28 H3           1.9310     0.0010     3.3400 ha         1 CVN       0.146000
     29 H4          -4.2340     1.3580     1.9730 ha         1 CVN       0.165500
     30 H5          -1.4850    -1.7080     3.1510 ha         1 CVN       0.165500
     31 H6          -4.6980    -0.6040     5.7360 ha         1 CVN       0.165000
     32 H7           0.7430     0.0010    -3.1480 hn         1 CVN       0.397500
     33 H8          -2.5950     0.1120     0.3670 hn         1 CVN       0.482800
@<TRIPOS>BOND
     1    21    15 1
     2    19    15 1
     3    24    22 1
     4    24     2 1
     5    15    20 1
     6    15    12 1
     7     4     2 ar
     8     4     6 ar
     9    22     7 1
    10     2     1 ar
    11     6     5 ar
    12     7     1 1
    13     7    25 2
    14     1     3 ar
    15    10    12 ar
    16    10     8 ar
    17     5     3 ar
    18     3    23 1
    19    12    13 ar
    20    23     8 1
    21     8     9 ar
    22    13    11 ar
    23     9    11 ar
    24    11    14 1
    25    14    16 1
    26    14    18 1
    27    14    17 1
    28     4    26 1
    29     5    27 1
    30     6    28 1
    31     9    29 1
    32    10    30 1
    33    13    31 1
    34    22    32 1
    35    23    33 1
@<TRIPOS>SUBSTRUCTURE
     1 CVN         1 TEMP              0 ****  ****    0 ROOT
