@<TRIPOS>MOLECULE
molecule
   64    67     1     0     0
SMALL
bcc


@<TRIPOS>ATOM
      1 C1           0.0000     0.0000     0.0000 ca         1 CVP       0.083600
      2 C3          -1.8860     0.6290    -1.3080 c          1 CVP       0.781100
      3 C11          2.0770     0.0000     1.1980 ca         1 CVP      -0.095000
      4 C12          1.3890     0.0000     0.0000 ca         1 CVP      -0.150000
      5 C13         -5.3350    -0.1270    -4.0940 ca         1 CVP       0.436200
      6 C15         -5.6230     0.4080    -6.3160 ca         1 CVP       0.428200
      7 C16         -4.8000     1.5120    -6.1970 ca         1 CVP      -0.257300
      8 C17         -4.2310     1.8010    -4.9670 ca         1 CVP      -0.077000
      9 C20          3.0490     1.6290     5.2690 c          1 CVP       0.672700
     10 C21          3.2950     3.0230     5.6940 ca         1 CVP      -0.147600
     11 C23          3.9830     3.2820     6.8820 ca         1 CVP      -0.087500
     12 C24          4.2090     4.5850     7.2740 ca         1 CVP      -0.129500
     13 C25          3.7570     5.6340     6.4920 ca         1 CVP      -0.057300
     14 C26          3.0750     5.3840     5.3150 ca         1 CVP      -0.129500
     15 C27          2.8480     4.0860     4.9080 ca         1 CVP      -0.087500
     16 C28          4.0080     7.0550     6.9270 c3         1 CVP       0.205100
     17 C30          5.4580     8.9630     6.5750 c3         1 CVP       0.161300
     18 N2          -0.7010    -0.0070    -1.2120 ns         1 CVP      -0.493100
     19 N4          -2.6110     0.5340    -2.4400 ns         1 CVP      -0.601900
     20 O5          -2.2990     1.2880    -0.3740 o          1 CVP      -0.644100
     21 C6          -3.8990     1.2250    -2.5440 c3         1 CVP       0.182300
     22 C7          -4.5020     0.9590    -3.8990 ca         1 CVP      -0.248600
     23 C8          -0.6920    -0.0000     1.2040 ca         1 CVP      -0.150000
     24 C9           0.0020    -0.0000     2.3980 ca         1 CVP      -0.095000
     25 C10          1.3850     0.0010     2.3950 ca         1 CVP      -0.140300
     26 N14         -5.8640    -0.3680    -5.2770 nb         1 CVP      -0.689000
     27 N19          2.3850     1.3820     4.1220 ns         1 CVP      -0.582900
     28 O22          3.4440     0.7050     5.9520 o          1 CVP      -0.613100
     29 N29          5.2890     7.5170     6.3750 n3         1 CVP      -0.728600
     30 C31          6.7640     9.4180     5.9180 c3         1 CVP       0.158800
     31 N32          7.8890     8.6730     6.5010 n7         1 CVP      -0.822200
     32 C33          7.7200     7.2270     6.3000 c3         1 CVP       0.158800
     33 C34          6.4140     6.7720     6.9580 c3         1 CVP       0.161300
     34 H1           3.1610    -0.0000     1.1990 ha         1 CVP       0.138500
     35 H2           1.9310    -0.0010    -0.9380 ha         1 CVP       0.148500
     36 H3          -5.5540    -0.7890    -3.2650 h4         1 CVP       0.029100
     37 H4          -6.0740     0.1760    -7.2740 h4         1 CVP       0.027100
     38 H5          -4.6080     2.1470    -7.0530 ha         1 CVP       0.142000
     39 H6          -3.5820     2.6600    -4.8440 ha         1 CVP       0.143000
     40 H7           3.0860    -0.5100     3.5690 h1         1 CVP       0.058200
     41 H8           1.5550    -0.5100     4.4550 h1         1 CVP       0.058200
     42 H9           4.3370     2.4620     7.4940 ha         1 CVP       0.142500
     43 H10          4.7430     4.7870     8.1950 ha         1 CVP       0.136500
     44 H11          2.7260     6.2100     4.7070 ha         1 CVP       0.136500
     45 H12          2.3130     3.8920     3.9860 ha         1 CVP       0.142500
     46 H13          4.0440     7.1010     8.0090 h1         1 CVP       0.042700
     47 H14          3.2090     7.6910     6.5650 h1         1 CVP       0.042700
     48 H16          5.4950     9.1780     7.6360 h1         1 CVP       0.042950
     49 H17         -0.3380    -0.5100    -1.9970 hn         1 CVP       0.319500
     50 H18         -2.2610     0.0080    -3.2160 hn         1 CVP       0.312500
     51 H19         -4.5680     0.8620    -1.7730 h1         1 CVP       0.062200
     52 H20         -3.7480     2.2910    -2.4190 h1         1 CVP       0.062200
     53 H21         -1.7760    -0.0010     1.2070 ha         1 CVP       0.148500
     54 H22         -0.5370    -0.0000     3.3370 ha         1 CVP       0.138500
     55 H23          2.0580     2.1430     3.5590 hn         1 CVP       0.320500
     56 H25          6.7170     9.2250     4.8530 h1         1 CVP       0.039200
     57 H26          6.9050    10.4780     6.0930 h1         1 CVP       0.039200
     58 H27          8.7430     8.9710     6.0740 hn         1 CVP       0.353800
     59 H29          7.6820     7.0130     5.2390 h1         1 CVP       0.039200
     60 H30          8.5520     6.7010     6.7510 h1         1 CVP       0.039200
     61 H31          6.4600     6.9650     8.0230 h1         1 CVP       0.042950
     62 H32          6.2730     5.7120     6.7830 h1         1 CVP       0.042950
     63 C18          2.1400     0.0010     3.6990 c3         1 CVP       0.165300
     64 H15          4.6260     9.4890     6.1240 h1         1 CVP       0.042950
@<TRIPOS>BOND
     1     6     7 ar
     2     6    26 ar
     3     7     8 ar
     4    26     5 ar
     5     8    22 ar
     6     5    22 ar
     7    22    21 1
     8    21    19 1
     9    19     2 1
    10     4     3 ar
    11     4     1 ar
    12    18     2 1
    13    18     1 1
    14     2    20 2
    15     3    25 ar
    16     1    23 ar
    17    25    63 1
    18    25    24 ar
    19    23    24 ar
    20    63    27 1
    21    27     9 1
    22    15    14 ar
    23    15    10 ar
    24     9    10 1
    25     9    28 2
    26    14    13 ar
    27    32    33 1
    28    32    31 1
    29    10    11 ar
    30    33    29 1
    31    31    30 1
    32    13    16 1
    33    13    12 ar
    34    11    12 ar
    35    29    16 1
    36    29    17 1
    37    30    17 1
    38     3    34 1
    39     4    35 1
    40     5    36 1
    41     6    37 1
    42     7    38 1
    43     8    39 1
    44    63    40 1
    45    63    41 1
    46    11    42 1
    47    12    43 1
    48    14    44 1
    49    15    45 1
    50    16    46 1
    51    16    47 1
    52    17    64 1
    53    17    48 1
    54    18    49 1
    55    19    50 1
    56    21    51 1
    57    21    52 1
    58    23    53 1
    59    24    54 1
    60    27    55 1
    61    30    56 1
    62    30    57 1
    63    31    58 1
    64    32    59 1
    65    32    60 1
    66    33    61 1
    67    33    62 1
@<TRIPOS>SUBSTRUCTURE
     1 CVP         1 TEMP              0 ****  ****    0 ROOT
