@<TRIPOS>MOLECULE
molecule
   63    67     1     0     0
SMALL
bcc


@<TRIPOS>ATOM
      1 C4           0.0000     0.0000     0.0000 ca         1 CVQ       0.710200
      2 C14          0.3020     0.0260     7.6570 ca         1 CVQ      -0.087000
      3 C6           0.0260     0.0040     2.3070 ca         1 CVQ       0.703700
      4 C11         -0.1460     0.0080     4.9300 ca         1 CVQ      -0.216900
      5 C7          -0.7250     0.0040     3.5820 cc         1 CVQ       0.315900
      6 C10         -1.2300     0.0160     5.8260 ca         1 CVQ      -0.022200
      7 C12          1.1610     0.0130     5.4240 ca         1 CVQ      -0.045000
      8 C13          1.3740     0.0160     6.7730 ca         1 CVQ      -0.176000
      9 N1           1.3530    -0.0010     2.3380 nb         1 CVQ      -0.734000
     10 C3           1.4010     0.0000     0.0000 ca         1 CVQ      -0.163500
     11 C37         -3.1010    -1.0540    -4.5230 c3         1 CVQ       0.131700
     12 C31         -2.8550    -0.2290    -2.3060 ca         1 CVQ      -0.033200
     13 C32         -4.2300    -0.0900    -2.2540 ca         1 CVQ       0.351200
     14 N33         -4.8210     0.3750    -1.1680 nb         1 CVQ      -0.685000
     15 C34         -4.1350     0.7240    -0.0960 ca         1 CVQ       0.404200
     16 C35         -2.7600     0.6160    -0.0660 ca         1 CVQ      -0.241300
     17 C30         -2.0950     0.1250    -1.1880 ca         1 CVQ       0.162600
     18 N29         -0.7050    -0.0040    -1.1960 nu         1 CVQ      -0.739300
     19 N5          -0.6430    -0.0010     1.1620 nb         1 CVQ      -0.749000
     20 O38          2.0970     0.0020    -1.1680 os         1 CVQ      -0.328900
     21 C39          3.5240     0.0020    -1.0740 c3         1 CVQ       0.128700
     22 C2           2.0610     0.0000     1.2190 ca         1 CVQ       0.403200
     23 N8          -2.0300    -0.0070     3.7130 nd         1 CVQ      -0.455100
     24 C15         -0.9840     0.0250     7.1970 ca         1 CVQ      -0.159000
     25 N9          -2.3740     0.0070     5.0680 na         1 CVQ       0.062900
     26 C16         -3.7400     0.0110     5.5960 c3         1 CVQ       0.143600
     27 C17         -4.2070    -1.4080     5.7930 ca         1 CVQ      -0.246300
     28 C22         -4.8480    -2.0730     4.7620 ca         1 CVQ       0.219400
     29 C21         -5.2780    -3.3770     4.9400 ca         1 CVQ      -0.252500
     30 F23         -5.0550    -1.4500     3.5810 f          1 CVQ      -0.123900
     31 C18         -3.9890    -2.0480     7.0010 ca         1 CVQ       0.219400
     32 F28         -3.3570    -1.3990     8.0040 f          1 CVQ      -0.123900
     33 C19         -4.4170    -3.3510     7.1820 ca         1 CVQ      -0.252500
     34 C20         -5.0650    -4.0170     6.1510 ca         1 CVQ       0.206100
     35 O24         -5.4870    -5.2970     6.3280 os         1 CVQ      -0.305900
     36 C25         -5.2330    -5.8930     7.6020 c3         1 CVQ       0.138400
     37 C26         -5.7750    -7.3240     7.6120 c3         1 CVQ       0.143400
     38 O27         -5.0470    -8.1160     6.6720 oh         1 CVQ      -0.598800
     39 H1           0.4890     0.0280     8.7240 ha         1 CVQ       0.129000
     40 H2           2.0010     0.0060     4.7400 ha         1 CVQ       0.154000
     41 H3           2.3870     0.0170     7.1570 ha         1 CVQ       0.130000
     42 H4          -2.4990    -1.4200    -5.3450 h1         1 CVQ       0.042033
     43 H5          -3.6550    -0.1790    -4.8430 h1         1 CVQ       0.042033
     44 H6          -3.7940    -1.8260    -4.2120 h1         1 CVQ       0.042033
     45 H7          -4.8300    -0.3650    -3.1140 h4         1 CVQ       0.023100
     46 H8          -4.6600     1.1030     0.7730 h4         1 CVQ       0.028100
     47 H9          -2.2060     0.9030     0.8190 ha         1 CVQ       0.199000
     48 H10         -0.2150    -0.0760    -2.0660 hn         1 CVQ       0.481800
     49 H11          3.8500     0.8860    -0.5390 h1         1 CVQ       0.044700
     50 H12          3.9510     0.0030    -2.0690 h1         1 CVQ       0.044700
     51 H13          3.8510    -0.8830    -0.5420 h1         1 CVQ       0.044700
     52 H14          3.1440    -0.0020     1.2560 h4         1 CVQ       0.035100
     53 H15         -1.8110     0.0330     7.8970 ha         1 CVQ       0.140000
     54 H16         -4.3970     0.5130     4.8960 h1         1 CVQ       0.078700
     55 H17         -3.7590     0.5320     6.5460 h1         1 CVQ       0.078700
     56 H18         -5.7820    -3.8960     4.1340 ha         1 CVQ       0.160500
     57 H19         -4.2480    -3.8500     8.1280 ha         1 CVQ       0.160500
     58 H20         -4.1660    -5.9100     7.7860 h1         1 CVQ       0.049200
     59 H21         -5.7250    -5.3150     8.3750 h1         1 CVQ       0.049200
     60 H22         -6.8240    -7.3150     7.3400 h1         1 CVQ       0.035200
     61 H23         -5.6630    -7.7460     8.6030 h1         1 CVQ       0.035200
     62 H24         -5.3120    -9.0170     6.7470 ho         1 CVQ       0.406000
     63 O36         -2.2530    -0.7090    -3.4270 os         1 CVQ      -0.338900
@<TRIPOS>BOND
     1    21    20 1
     2    22     9 ar
     3    22    10 ar
     4     9     3 ar
     5    20    10 1
     6    10     1 ar
     7    23    25 1
     8    23     5 2
     9    26    25 1
    10    26    27 1
    11     3     5 1
    12     3    19 ar
    13    25     6 1
    14     5     4 1
    15     1    19 ar
    16     1    18 1
    17    32    31 1
    18    27    31 ar
    19    27    28 ar
    20     6     4 ar
    21     6    24 ar
    22    30    28 1
    23     4     7 ar
    24    18    17 1
    25    31    33 ar
    26    28    29 ar
    27    24     2 ar
    28     7     8 ar
    29    33    34 ar
    30    63    11 1
    31    63    12 1
    32    29    34 ar
    33    17    12 ar
    34    17    16 ar
    35    34    35 1
    36     2     8 ar
    37    12    13 ar
    38    16    15 ar
    39    36    35 1
    40    36    37 1
    41    13    14 ar
    42    38    37 1
    43    15    14 ar
    44     2    39 1
    45     7    40 1
    46     8    41 1
    47    11    42 1
    48    11    43 1
    49    11    44 1
    50    13    45 1
    51    15    46 1
    52    16    47 1
    53    18    48 1
    54    21    49 1
    55    21    50 1
    56    21    51 1
    57    22    52 1
    58    24    53 1
    59    26    54 1
    60    26    55 1
    61    29    56 1
    62    33    57 1
    63    36    58 1
    64    36    59 1
    65    37    60 1
    66    37    61 1
    67    38    62 1
@<TRIPOS>SUBSTRUCTURE
     1 CVQ         1 TEMP              0 ****  ****    0 ROOT
