@<TRIPOS>MOLECULE
CVQ
   63    67     1     0     0
SMALL
bcc


@<TRIPOS>ATOM
      1 C4           0.0000     0.0000     0.0000 ca         1 CVQ       0.494200
      2 C14          0.3020     0.0260     7.6570 ca         1 CVQ      -0.059000
      3 C6           0.0260     0.0040     2.3070 ca         1 CVQ       0.614700
      4 C11         -0.1460     0.0080     4.9300 ca         1 CVQ      -0.221900
      5 C7          -0.7250     0.0040     3.5820 cc         1 CVQ       0.319900
      6 C10         -1.2300     0.0160     5.8260 ca         1 CVQ      -0.173200
      7 C12          1.1610     0.0130     5.4240 ca         1 CVQ      -0.016000
      8 C13          1.3740     0.0160     6.7730 ca         1 CVQ      -0.150000
      9 N1           1.3530    -0.0010     2.3380 nb         1 CVQ      -0.627000
     10 C3           1.4010     0.0000     0.0000 ca         1 CVQ      -0.156500
     11 C37         -3.1010    -1.0540    -4.5230 c3         1 CVQ       0.248700
     12 C31         -2.8550    -0.2290    -2.3060 ca         1 CVQ      -0.017200
     13 C32         -4.2300    -0.0900    -2.2540 ca         1 CVQ       0.320200
     14 N33         -4.8210     0.3750    -1.1680 nb         1 CVQ      -0.575000
     15 C34         -4.1350     0.7240    -0.0960 ca         1 CVQ       0.392200
     16 C35         -2.7600     0.6160    -0.0660 ca         1 CVQ      -0.231300
     17 C30         -2.0950     0.1250    -1.1880 ca         1 CVQ      -0.008400
     18 N29         -0.7050    -0.0040    -1.1960 nu         1 CVQ      -0.261300
     19 N5          -0.6430    -0.0010     1.1620 nb         1 CVQ      -0.625000
     20 O38          2.0970     0.0020    -1.1680 os         1 CVQ      -0.303900
     21 C39          3.5240     0.0020    -1.0740 c3         1 CVQ       0.248700
     22 C2           2.0610     0.0000     1.2190 ca         1 CVQ       0.375200
     23 N8          -2.0300    -0.0070     3.7130 nd         1 CVQ      -0.576100
     24 C15         -0.9840     0.0250     7.1970 ca         1 CVQ      -0.131000
     25 N9          -2.3740     0.0070     5.0680 na         1 CVQ       0.456900
     26 C16         -3.7400     0.0110     5.5960 c3         1 CVQ       0.075600
     27 C17         -4.2070    -1.4080     5.7930 ca         1 CVQ      -0.245300
     28 C22         -4.8480    -2.0730     4.7620 ca         1 CVQ       0.199900
     29 C21         -5.2780    -3.3770     4.9400 ca         1 CVQ      -0.228500
     30 F23         -5.0550    -1.4500     3.5810 f          1 CVQ      -0.118400
     31 C18         -3.9890    -2.0480     7.0010 ca         1 CVQ       0.199900
     32 F28         -3.3570    -1.3990     8.0040 f          1 CVQ      -0.118400
     33 C19         -4.4170    -3.3510     7.1820 ca         1 CVQ      -0.228500
     34 C20         -5.0650    -4.0170     6.1510 ca         1 CVQ       0.216100
     35 O24         -5.4870    -5.2970     6.3280 os         1 CVQ      -0.285900
     36 C25         -5.2330    -5.8930     7.6020 c3         1 CVQ       0.194400
     37 C26         -5.7750    -7.3240     7.6120 c3         1 CVQ       0.222400
     38 O27         -5.0470    -8.1160     6.6720 oh         1 CVQ      -0.582800
     39 H1           0.4890     0.0280     8.7240 ha         1 CVQ       0.099000
     40 H2           2.0010     0.0060     4.7400 ha         1 CVQ       0.123000
     41 H3           2.3870     0.0170     7.1570 ha         1 CVQ       0.104000
     42 H4          -2.4990    -1.4200    -5.3450 h1         1 CVQ      -0.001300
     43 H5          -3.6550    -0.1790    -4.8430 h1         1 CVQ      -0.001300
     44 H6          -3.7940    -1.8260    -4.2120 h1         1 CVQ      -0.001300
     45 H7          -4.8300    -0.3650    -3.1140 h4         1 CVQ      -0.009900
     46 H8          -4.6600     1.1030     0.7730 h4         1 CVQ      -0.015900
     47 H9          -2.2060     0.9030     0.8190 ha         1 CVQ       0.181000
     48 H10         -0.2150    -0.0760    -2.0660 hn         1 CVQ       0.304800
     49 H11          3.8500     0.8860    -0.5390 h1         1 CVQ      -0.000300
     50 H12          3.9510     0.0030    -2.0690 h1         1 CVQ      -0.000300
     51 H13          3.8510    -0.8830    -0.5420 h1         1 CVQ      -0.000300
     52 H14          3.1440    -0.0020     1.2560 h4         1 CVQ      -0.002900
     53 H15         -1.8110     0.0330     7.8970 ha         1 CVQ       0.119000
     54 H16         -4.3970     0.5130     4.8960 h1         1 CVQ       0.045200
     55 H17         -3.7590     0.5320     6.5460 h1         1 CVQ       0.045200
     56 H18         -5.7820    -3.8960     4.1340 ha         1 CVQ       0.140500
     57 H19         -4.2480    -3.8500     8.1280 ha         1 CVQ       0.140500
     58 H20         -4.1660    -5.9100     7.7860 h1         1 CVQ       0.010700
     59 H21         -5.7250    -5.3150     8.3750 h1         1 CVQ       0.010700
     60 H22         -6.8240    -7.3150     7.3400 h1         1 CVQ      -0.004800
     61 H23         -5.6630    -7.7460     8.6030 h1         1 CVQ      -0.004800
     62 H24         -5.3120    -9.0170     6.7470 ho         1 CVQ       0.392000
     63 O36         -2.2530    -0.7090    -3.4270 os         1 CVQ      -0.315900
@<TRIPOS>BOND
     1     1    10 ar  
     2     1    18 1   
     3     1    19 ar  
     4     2     8 ar  
     5     2    24 ar  
     6     2    39 1   
     7     3     5 1   
     8     3     9 ar  
     9     3    19 ar  
    10     4     5 1   
    11     4     6 ar  
    12     4     7 ar  
    13     5    23 2   
    14     6    24 ar  
    15     6    25 1   
    16     7     8 ar  
    17     7    40 1   
    18     8    41 1   
    19     9    22 ar  
    20    10    20 1   
    21    10    22 ar  
    22    11    42 1   
    23    11    43 1   
    24    11    44 1   
    25    11    63 1   
    26    12    13 ar  
    27    12    17 ar  
    28    12    63 1   
    29    13    14 ar  
    30    13    45 1   
    31    14    15 ar  
    32    15    16 ar  
    33    15    46 1   
    34    16    17 ar  
    35    16    47 1   
    36    17    18 1   
    37    18    48 1   
    38    20    21 1   
    39    21    49 1   
    40    21    50 1   
    41    21    51 1   
    42    22    52 1   
    43    23    25 1   
    44    24    53 1   
    45    25    26 1   
    46    26    27 1   
    47    26    54 1   
    48    26    55 1   
    49    27    28 ar  
    50    27    31 ar  
    51    28    29 ar  
    52    28    30 1   
    53    29    34 ar  
    54    29    56 1   
    55    31    32 1   
    56    31    33 ar  
    57    33    34 ar  
    58    33    57 1   
    59    34    35 1   
    60    35    36 1   
    61    36    37 1   
    62    36    58 1   
    63    36    59 1   
    64    37    38 1   
    65    37    60 1   
    66    37    61 1   
    67    38    62 1   
@<TRIPOS>SUBSTRUCTURE
     1 CVQ         1 TEMP              0 ****  ****    0 ROOT
