@<TRIPOS>MOLECULE
molecule
   47    49     1     0     0
SMALL
bcc


@<TRIPOS>ATOM
      1 C4           0.0000     0.0000     0.0000 ca         1 CVT      -0.043000
      2 C14         -5.9680     0.3590     6.5090 ca         1 CVT      -0.211000
      3 C5           1.4050     0.0000     0.0000 ca         1 CVT      -0.093000
      4 C6           2.1000     0.0000     1.1700 ca         1 CVT      -0.141000
      5 C7          -2.0960     0.0140     1.2380 ca         1 CVT      -0.118000
      6 C8          -2.7740     0.0130     0.0560 ca         1 CVT      -0.122000
      7 C9          -2.0920    -0.0010    -1.1590 ca         1 CVT      -0.123000
      8 C10         -0.7310    -0.0010    -1.2000 ca         1 CVT      -0.125000
      9 C12         -3.8940     0.2370     5.1380 c          1 CVT       0.693700
     10 C13         -4.5770     0.2380     6.4460 ca         1 CVT      -0.080600
     11 N1          -1.9030     0.1210     3.8380 n2         1 CVT      -0.420300
     12 N2          -2.5520     0.1210     5.0800 ns         1 CVT      -0.355900
     13 C3          -0.6960     0.0070     1.2340 ca         1 CVT      -0.014000
     14 C1           1.4600     0.0010     2.4020 ca         1 CVT      -0.099000
     15 C15         -6.6050     0.3650     7.7350 ca         1 CVT       0.149100
     16 C16         -5.8630     0.2460     8.9070 ca         1 CVT       0.074100
     17 C17         -4.4790     0.1200     8.8480 ca         1 CVT       0.149100
     18 C18         -3.8340     0.1190     7.6240 ca         1 CVT      -0.211000
     19 C19         -2.3390    -0.1220     9.8600 c3         1 CVT       0.124700
     20 C2           0.0720     0.0080     2.4780 ca         1 CVT      -0.125900
     21 C20         -6.9100    -1.0110    10.6330 c3         1 CVT       0.136700
     22 C21         -8.6560     0.6070     6.5560 c3         1 CVT       0.124700
     23 O1          -4.5410     0.3430     4.1140 o          1 CVT      -0.566100
     24 O2          -7.9580     0.4880     7.7980 os         1 CVT      -0.309400
     25 O3          -6.4920     0.2520    10.1120 os         1 CVT      -0.324900
     26 O4          -3.7560     0.0040     9.9940 os         1 CVT      -0.309400
     27 H10         -6.5450     0.4520     5.5970 ha         1 CVT       0.149000
     28 H2           1.9400    -0.0010    -0.9420 ha         1 CVT       0.132000
     29 H3           3.1830    -0.0060     1.1390 ha         1 CVT       0.129000
     30 H8          -0.0340    -0.0850     4.6940 h4         1 CVT      -0.012200
     31 H4          -2.6380     0.0240     2.1760 ha         1 CVT       0.196000
     32 H5          -3.8570     0.0130     0.0600 ha         1 CVT       0.136000
     33 H6          -2.6530    -0.0010    -2.0860 ha         1 CVT       0.127000
     34 H7          -0.2140    -0.0120    -2.1520 ha         1 CVT       0.130000
     35 H9          -2.0180     0.0570     5.9240 hn         1 CVT       0.299500
     36 H1           2.0470     0.0010     3.3120 ha         1 CVT       0.127000
     37 H11         -2.7560     0.0230     7.5780 ha         1 CVT       0.149000
     38 H12         -1.9430     0.7600     9.3710 h1         1 CVT       0.044700
     39 H13         -2.1080    -0.9980     9.2650 h1         1 CVT       0.044700
     40 H14         -1.8900    -0.2230    10.8400 h1         1 CVT       0.044700
     41 H15         -6.4190    -1.1910    11.5810 h1         1 CVT       0.035700
     42 H16         -7.9840    -1.0050    10.7780 h1         1 CVT       0.035700
     43 H17         -6.6450    -1.7950     9.9340 h1         1 CVT       0.035700
     44 H18         -8.3180     1.4950     6.0350 h1         1 CVT       0.044700
     45 H20         -8.4590    -0.2660     5.9460 h1         1 CVT       0.044700
     46 H19         -9.7200     0.6830     6.7450 h1         1 CVT       0.044700
     47 C11         -0.6100     0.0090     3.7810 ce         1 CVT       0.403800
@<TRIPOS>BOND
     1    19    26 1
     2    26    17 1
     3    21    25 1
     4    25    16 1
     5    17    16 ar
     6    17    18 ar
     7    16    15 ar
     8    18    10 ar
     9    15    24 1
    10    15     2 ar
    11    24    22 1
    12    10     2 ar
    13    10     9 1
    14    23     9 2
    15     9    12 1
    16    12    11 1
    17    11    47 2
    18    14     4 ar
    19    14    20 ar
    20    47    20 1
    21     4     3 ar
    22    20    13 ar
    23     3     1 ar
    24    13     1 ar
    25    13     5 ar
    26     1     8 ar
    27     5     6 ar
    28     8     7 ar
    29     6     7 ar
    30     2    27 1
    31     3    28 1
    32     4    29 1
    33    47    30 1
    34     5    31 1
    35     6    32 1
    36     7    33 1
    37     8    34 1
    38    12    35 1
    39    14    36 1
    40    18    37 1
    41    19    38 1
    42    19    39 1
    43    19    40 1
    44    21    41 1
    45    21    42 1
    46    21    43 1
    47    22    44 1
    48    22    45 1
    49    22    46 1
@<TRIPOS>SUBSTRUCTURE
     1 CVT         1 TEMP              0 ****  ****    0 ROOT
