@<TRIPOS>MOLECULE
CVT
   47    50     1     0     0
SMALL
bcc


@<TRIPOS>ATOM
      1 C4           0.0000     0.0000     0.0000 ca         1 CVT      -0.065000
      2 C14         -5.9680     0.3590     6.5090 ca         1 CVT      -0.201500
      3 C5           1.4050     0.0000     0.0000 c2         1 CVT      -0.022000
      4 C6           2.1000     0.0000     1.1700 c2         1 CVT      -0.148000
      5 C7          -2.0960     0.0140     1.2380 ca         1 CVT      -0.145000
      6 C8          -2.7740     0.0130     0.0560 ca         1 CVT      -0.068000
      7 C9          -2.0920    -0.0010    -1.1590 ca         1 CVT      -0.102000
      8 C10         -0.7310    -0.0010    -1.2000 ca         1 CVT      -0.084000
      9 C12         -3.8940     0.2370     5.1380 c2         1 CVT       0.272000
     10 C13         -4.5770     0.2380     6.4460 ca         1 CVT      -0.068000
     11 N1          -1.9030     0.1210     3.8380 n2         1 CVT       0.006000
     12 N2          -2.5520     0.1210     5.0800 ns         1 CVT       0.087000
     13 C3          -0.6960     0.0070     1.2340 ca         1 CVT      -0.024000
     14 C1           1.4600     0.0010     2.4020 c2         1 CVT       0.013000
     15 C15         -6.6050     0.3650     7.7350 ca         1 CVT       0.110000
     16 C16         -5.8630     0.2460     8.9070 ca         1 CVT       0.024000
     17 C17         -4.4790     0.1200     8.8480 ca         1 CVT       0.110000
     18 C18         -3.8340     0.1190     7.6240 ca         1 CVT      -0.201500
     19 C19         -2.3390    -0.1220     9.8600 c3         1 CVT       0.050000
     20 C2           0.0720     0.0080     2.4780 c3         1 CVT      -0.129000
     21 C20         -6.9100    -1.0110    10.6330 c3         1 CVT       0.065000
     22 C21         -8.6560     0.6070     6.5560 c3         1 CVT       0.050000
     23 O1          -4.5410     0.3430     4.1140 o          1 CVT      -0.369000
     24 O2          -7.9580     0.4880     7.7980 os         1 CVT      -0.174500
     25 O3          -6.4920     0.2520    10.1120 os         1 CVT      -0.195000
     26 O4          -3.7560     0.0040     9.9940 os         1 CVT      -0.174500
     27 H10         -6.5450     0.4520     5.5970 ha         1 CVT       0.137500
     28 H2           1.9400    -0.0010    -0.9420 ha         1 CVT       0.104000
     29 H3           3.1830    -0.0060     1.1390 ha         1 CVT       0.109000
     30 H8          -0.4110     0.8970     3.1940 DU         1 CVT       0.329000
     31 H4          -2.6380     0.0240     2.1760 ha         1 CVT       0.181000
     32 H5          -3.8570     0.0130     0.0600 ha         1 CVT       0.108000
     33 H6          -2.6530    -0.0010    -2.0860 ha         1 CVT       0.102000
     34 H7          -0.2140    -0.0120    -2.1520 ha         1 CVT       0.106000
     35 H9          -2.0220     0.0100     5.9210 hn         1 CVT       0.091000
     36 H1           2.0470     0.0010     3.3120 ha         1 CVT       0.118000
     37 H11         -2.7560     0.0230     7.5780 ha         1 CVT       0.137500
     38 H12         -1.8900    -0.2220    10.8400 h1         1 CVT       0.039500
     39 H13         -1.9430     0.7600     9.3700 h1         1 CVT       0.039500
     40 H14         -2.1080    -0.9980     9.2660 h1         1 CVT       0.039500
     41 H15         -7.9840    -1.0060    10.7750 h1         1 CVT       0.030667
     42 H16         -6.4210    -1.1900    11.5830 h1         1 CVT       0.030667
     43 H17         -6.6430    -1.7960     9.9350 h1         1 CVT       0.030667
     44 H18         -8.3180     1.4950     6.0350 h1         1 CVT       0.039500
     45 H20         -8.4590    -0.2660     5.9460 h1         1 CVT       0.039500
     46 H19         -9.7200     0.6830     6.7450 h1         1 CVT       0.039500
     47 C11         -0.6100     0.0090     3.7810 c2         1 CVT      -0.466000
@<TRIPOS>BOND
     1     1     3 1   
     2     1     8 1   
     3     1    13 1   
     4     2    10 1   
     5     2    15 1   
     6     2    27 1   
     7     3     4 1   
     8     3    28 1   
     9     4    14 1   
    10     4    29 1   
    11     5     6 1   
    12     5    13 1   
    13     5    31 1   
    14     6     7 1   
    15     6    32 1   
    16     7     8 1   
    17     7    33 1   
    18     8    34 1   
    19     9    10 1   
    20     9    12 1   
    21     9    23 1   
    22    10    18 1   
    23    11    12 1   
    24    11    47 1   
    25    12    35 1   
    26    13    20 1   
    27    14    20 1   
    28    14    36 1   
    29    15    16 1   
    30    15    24 1   
    31    16    17 1   
    32    16    25 1   
    33    17    18 1   
    34    17    26 1   
    35    18    37 1   
    36    19    26 1   
    37    19    38 1   
    38    19    39 1   
    39    19    40 1   
    40    20    30 1   
    41    20    47 1   
    42    21    25 1   
    43    21    41 1   
    44    21    42 1   
    45    21    43 1   
    46    22    24 1   
    47    22    44 1   
    48    22    45 1   
    49    22    46 1   
    50    30    47 1   
@<TRIPOS>SUBSTRUCTURE
     1 CVT         1 TEMP              0 ****  ****    0 ROOT
