@<TRIPOS>MOLECULE
molecule
   23    22     1     0     0
SMALL
bcc


@<TRIPOS>ATOM
      1 C1           0.0000     0.0000     0.0000 c3         1 CVU       0.041400
      2 O1           1.4290     0.0000     0.0000 oh         1 CVU      -0.588800
      3 C2          -0.5030     0.0000     1.4210 c          1 CVU       0.527100
      4 O2           0.2830     0.0010     2.3390 o          1 CVU      -0.470100
      5 C3          -1.9840     0.0010     1.6960 c3         1 CVU       0.048100
      6 O3          -2.2200     0.4620     3.0280 oh         1 CVU      -0.583800
      7 C4          -2.5320    -1.4200     1.5440 c3         1 CVU       0.163100
      8 O4          -2.2940    -1.8810     0.2120 oh         1 CVU      -0.596800
      9 C5          -4.0350    -1.4200     1.8240 c3         1 CVU       0.134100
     10 O5          -4.6780    -0.4660     0.9740 oh         1 CVU      -0.601800
     11 C6          -4.6050    -2.8130     1.5520 c3         1 CVU      -0.123100
     12 H1          -0.3610    -0.8850    -0.5110 h1         1 CVU       0.051200
     13 HC1         -0.3610     0.8840    -0.5110 h1         1 CVU       0.051200
     14 HO1          1.7430     0.0050    -0.8890 ho         1 CVU       0.404000
     15 H3          -2.4820     0.6580     0.9930 h1         1 CVU       0.075700
     16 HO3         -2.3460     1.3970     3.0190 ho         1 CVU       0.413000
     17 H4          -2.0330    -2.0760     2.2480 h1         1 CVU       0.060700
     18 HO4         -1.8960    -2.7350     0.2420 ho         1 CVU       0.407000
     19 H5          -4.2100    -1.1550     2.8600 h1         1 CVU       0.051700
     20 HO5         -5.4930    -0.1970     1.3630 ho         1 CVU       0.402000
     21 H61         -4.6390    -2.9860     0.4830 hc         1 CVU       0.045033
     22 H62         -3.9730    -3.5590     2.0180 hc         1 CVU       0.045033
     23 H63         -5.6060    -2.8800     1.9610 hc         1 CVU       0.045033
@<TRIPOS>BOND
     1     1     2 1
     2     1     3 1
     3     3     4 2
     4     3     5 1
     5     5     6 1
     6     5     7 1
     7     7     8 1
     8     7     9 1
     9     9    10 1
    10     9    11 1
    11     1    12 1
    12     1    13 1
    13     2    14 1
    14     5    15 1
    15     6    16 1
    16     7    17 1
    17     8    18 1
    18     9    19 1
    19    10    20 1
    20    11    21 1
    21    11    22 1
    22    11    23 1
@<TRIPOS>SUBSTRUCTURE
     1 CVU         1 TEMP              0 ****  ****    0 ROOT
