@<TRIPOS>MOLECULE
CVU
   23    22     1     0     0
SMALL
bcc


@<TRIPOS>ATOM
      1 C1         -0.0600    0.0720   -0.1930 c3        1 CVU      0.035400
      2 O1          1.3120    0.3260   -0.3960 oh        1 CVU     -0.586800
      3 C2         -0.4340   -0.0130    1.2620 c         1 CVU      0.518100
      4 O2          0.4130   -0.1210    2.1550 o         1 CVU     -0.534100
      5 C3         -1.9140    0.0150    1.5920 c3        1 CVU      0.015100
      6 O3         -2.1350    0.5300    2.8900 oh        1 CVU     -0.582800
      7 C4         -2.5240   -1.4000    1.4750 c3        1 CVU      0.127100
      8 O4         -2.2460   -1.9640    0.2110 oh        1 CVU     -0.598800
      9 C5         -4.0370   -1.3330    1.7520 c3        1 CVU      0.107100
     10 O5         -4.6090   -0.7220    0.5970 oh        1 CVU     -0.620800
     11 C6         -4.6090   -2.7160    1.9860 c3        1 CVU     -0.131100
     12 H1         -0.3560   -0.8970   -0.6870 h1        1 CVU      0.081700
     13 HC1        -0.5940    0.9270   -0.6890 h1        1 CVU      0.081700
     14 HO1         1.8080   -0.1910    0.2550 ho        1 CVU      0.419000
     15 H3         -2.4630    0.7180    0.9030 h1        1 CVU      0.106700
     16 HO3        -1.4720    0.1390    3.4780 ho        1 CVU      0.420000
     17 H4         -2.0340   -2.0890    2.2190 h1        1 CVU      0.084700
     18 HO4        -2.8510   -1.5640   -0.4300 ho        1 CVU      0.425000
     19 H5         -4.2160   -0.6690    2.6450 h1        1 CVU      0.068700
     20 HO5        -5.5660   -0.7890    0.6860 ho        1 CVU      0.416000
     21 H61        -4.3700   -3.3800    1.1200 hc        1 CVU      0.050033
     22 H62        -4.1700   -3.1590    2.9120 hc        1 CVU      0.050033
     23 H63        -5.7180   -2.6630    2.1050 hc        1 CVU      0.050033
@<TRIPOS>BOND
     1    1    2 1   
     2    1    3 1   
     3    1   12 1   
     4    1   13 1   
     5    2   14 1   
     6    3    4 2   
     7    3    5 1   
     8    5    6 1   
     9    5    7 1   
    10    5   15 1   
    11    6   16 1   
    12    7    8 1   
    13    7    9 1   
    14    7   17 1   
    15    8   18 1   
    16    9   10 1   
    17    9   11 1   
    18    9   19 1   
    19   10   20 1   
    20   11   21 1   
    21   11   22 1   
    22   11   23 1   
@<TRIPOS>SUBSTRUCTURE
     1 CVU         1 TEMP              0 ****  ****    0 ROOT
