@<TRIPOS>MOLECULE
CVV
   60    66     1     0     0
SMALL
bcc


@<TRIPOS>ATOM
      1 N1           0.0000     0.0000     0.0000 ns         1 CVV      -0.190900
      2 C4           5.0260    -2.2450     0.7870 c3         1 CVV       0.152500
      3 C5           3.5300    -1.9620     0.8350 c3         1 CVV       0.017500
      4 C6           2.8530    -2.0010    -0.4850 c2         1 CVV      -0.130200
      5 C7           1.9340    -1.1500    -0.8130 c2         1 CVV      -0.166200
      6 C8           1.4650     0.0000     0.0000 c3         1 CVV       0.032900
      7 C10         -2.1510     0.5860    -1.0130 ca         1 CVV      -0.148600
      8 C13         -4.9210     0.5960    -1.0090 ca         1 CVV      -0.063000
      9 C15         -2.8530    -0.0130     0.0340 ca         1 CVV      -0.084000
     10 C17          3.3170    -0.6550     1.5610 c3         1 CVV      -0.032700
     11 C20          4.1460     2.7450     0.5240 ca         1 CVV       0.113100
     12 C21          5.3680     2.5600    -0.1200 ca         1 CVV      -0.114000
     13 C22          3.7790    -0.8160     3.0130 c3         1 CVV      -0.007400
     14 C26          8.7480    -3.6490     3.8520 cx         1 CVV      -0.083400
     15 C1           5.9640     1.3200    -0.2850 ca         1 CVV      -0.108000
     16 C11         -2.8510     1.1900    -2.0580 ca         1 CVV      -0.019000
     17 C12         -4.2310     1.1920    -2.0510 ca         1 CVV       0.183900
     18 C14         -4.2330    -0.0040     0.0310 ca         1 CVV      -0.104000
     19 C16          1.9470     0.0000     1.4550 c3         1 CVV       0.188100
     20 C18          4.1810     0.3900     0.9000 ca         1 CVV      -0.172300
     21 C19          3.5210     1.6050     1.0400 ca         1 CVV       0.110100
     22 C2           5.3540     0.1830     0.2160 ca         1 CVV      -0.036300
     23 C23          5.2750    -1.1650     2.9730 c3         1 CVV       0.134800
     24 C25          7.3330    -3.1110     3.6300 cx         1 CVV      -0.114700
     25 C27          8.3880    -2.2350     4.3100 cx         1 CVV      -0.083400
     26 O3           2.3290     1.4070     1.6820 os         1 CVV      -0.290900
     27 C3           5.8490    -1.2140     0.0330 c3         1 CVV      -0.002100
     28 O4           3.5850     3.9780     0.6460 oh         1 CVV      -0.480100
     29 C9          -0.6730     0.5850    -1.0110 c          1 CVV       0.598700
     30 H1          -0.5000    -0.4750     0.7250 hn         1 CVV       0.177500
     31 H2           5.1660    -3.2020     0.2990 h1         1 CVV       0.034700
     32 H3           3.0800    -2.7380     1.4410 hc         1 CVV       0.045700
     33 H4           3.1360    -2.7680    -1.1960 ha         1 CVV       0.106000
     34 H5           1.4600    -1.2920    -1.7770 ha         1 CVV       0.115000
     35 H6           1.8110     0.9120    -0.4720 h1         1 CVV       0.095700
     36 H7          -6.0040     0.6000    -1.0070 ha         1 CVV       0.117000
     37 H8          -2.3150    -0.4830     0.8490 ha         1 CVV       0.103000
     38 H9           5.8780     3.4320    -0.5120 ha         1 CVV       0.110000
     39 H10          3.6320     0.1120     3.5510 hc         1 CVV       0.028200
     40 H11          3.2270    -1.6170     3.4880 hc         1 CVV       0.028200
     41 H14          9.3700    -3.7100     2.9660 hc         1 CVV       0.044700
     42 H15          8.8510    -4.3840     4.6410 hc         1 CVV       0.044700
     43 H16          6.9170     1.2430    -0.7950 ha         1 CVV       0.107000
     44 H17         -2.3120     1.6570    -2.8730 ha         1 CVV       0.142000
     45 H18         -4.7780    -0.4690     0.8430 ha         1 CVV       0.109000
     46 H19          1.2210    -0.3730     2.1670 h1         1 CVV       0.058700
     47 H21          5.8210    -0.3370     2.5370 h1         1 CVV       0.023700
     48 H22          5.6260    -1.3370     3.9830 h1         1 CVV       0.023700
     49 H23          6.5840    -3.5180     4.2980 hc         1 CVV       0.069700
     50 H24          8.7890    -1.4310     3.7040 hc         1 CVV       0.044700
     51 H25          8.2700    -2.1060     5.3790 hc         1 CVV       0.044700
     52 H26          5.8230    -1.4550    -1.0230 hc         1 CVV       0.034700
     53 H27          6.8730    -1.2670     0.3820 hc         1 CVV       0.034700
     54 H28          4.0010     4.4440     1.3530 ho         1 CVV       0.398000
     55 N2           5.5120    -2.3690     2.1720 n3         1 CVV      -0.540600
     56 C24          6.9300    -2.7510     2.2000 c3         1 CVV       0.186800
     57 I1          -5.2840     2.0980    -3.6190 i          1 CVV      -0.279900
     58 O2          -0.0640     1.1110    -1.9230 o          1 CVV      -0.640100
     59 H12          7.0870    -3.6060     1.5540 h1         1 CVV       0.015200
     60 H13          7.5340    -1.9210     1.8530 h1         1 CVV       0.015200
@<TRIPOS>BOND
     1     1     6 1   
     2     1    29 1   
     3     1    30 1   
     4     2     3 1   
     5     2    27 1   
     6     2    31 1   
     7     2    55 1   
     8     3     4 1   
     9     3    10 1   
    10     3    32 1   
    11     4     5 2   
    12     4    33 1   
    13     5     6 1   
    14     5    34 1   
    15     6    19 1   
    16     6    35 1   
    17     7     9 ar  
    18     7    16 ar  
    19     7    29 1   
    20     8    17 ar  
    21     8    18 ar  
    22     8    36 1   
    23     9    18 ar  
    24     9    37 1   
    25    10    13 1   
    26    10    19 1   
    27    10    20 1   
    28    11    12 ar  
    29    11    21 ar  
    30    11    28 1   
    31    12    15 ar  
    32    12    38 1   
    33    13    23 1   
    34    13    39 1   
    35    13    40 1   
    36    14    24 1   
    37    14    25 1   
    38    14    41 1   
    39    14    42 1   
    40    15    22 ar  
    41    15    43 1   
    42    16    17 ar  
    43    16    44 1   
    44    17    57 1   
    45    18    45 1   
    46    19    26 1   
    47    19    46 1   
    48    20    21 ar  
    49    20    22 ar  
    50    21    26 1   
    51    22    27 1   
    52    23    47 1   
    53    23    48 1   
    54    23    55 1   
    55    24    25 1   
    56    24    49 1   
    57    24    56 1   
    58    25    50 1   
    59    25    51 1   
    60    27    52 1   
    61    27    53 1   
    62    28    54 1   
    63    29    58 2   
    64    55    56 1   
    65    56    59 1   
    66    56    60 1   
@<TRIPOS>SUBSTRUCTURE
     1 CVV         1 TEMP              0 ****  ****    0 ROOT
