@<TRIPOS>MOLECULE
CVW
   28    29     1     0     0
SMALL
bcc


@<TRIPOS>ATOM
      1 C10          0.0000     0.0000     0.0000 ca         1 CVW      -0.072300
      2 C13         -0.7480     0.0000    -1.3080 c3         1 CVW       0.062200
      3 C02         -2.3440    -1.4170     4.3860 c3         1 CVW      -0.064200
      4 C03         -1.8230     0.0210     4.3190 c3         1 CVW       0.091800
      5 C04         -0.4090     0.0190     3.7970 cc         1 CVW      -0.235400
      6 C05          0.7140     0.0230     4.5320 cd         1 CVW      -0.222100
      7 C07          1.4060     0.0120     2.3940 ca         1 CVW      -0.229200
      8 C08          2.0910     0.0000     1.1840 ca         1 CVW      -0.086000
      9 C09          1.3880     0.0000     0.0000 ca         1 CVW      -0.078000
     10 C11         -0.6930     0.0060     1.1780 ca         1 CVW      -0.095000
     11 C12         -0.0000     0.0110     2.3900 ca         1 CVW      -0.071800
     12 N01         -3.7220    -1.4150     4.8950 nz         1 CVW       0.083400
     13 N06          1.8080     0.0190     3.7120 na         1 CVW       0.392600
     14 H1          -1.2370     0.9570    -1.4440 hc         1 CVW       0.012033
     15 H2          -0.0530    -0.1700    -2.1220 hc         1 CVW       0.012033
     16 H3          -1.4920    -0.7870    -1.2990 hc         1 CVW       0.012033
     17 H4          -1.7150    -1.9980     5.0490 hx         1 CVW       0.088200
     18 H5          -2.3260    -1.8540     3.3950 hx         1 CVW       0.088200
     19 H6          -1.8420     0.4580     5.3100 hc         1 CVW       0.026200
     20 H7          -2.4520     0.6020     3.6560 hc         1 CVW       0.026200
     21 H8           0.7480     0.0280     5.6150 h4         1 CVW       0.140000
     22 H9           3.1720    -0.0070     1.1120 ha         1 CVW       0.113000
     23 H10          2.0530     0.0070    -0.8550 ha         1 CVW       0.119000
     24 H11         -1.7480     0.2270     1.0750 ha         1 CVW       0.100000
     25 H12         -4.2910    -0.8300     4.3150 hn         1 CVW       0.220467
     26 H13         -4.0830    -2.3480     4.8830 hn         1 CVW       0.220467
     27 H15          2.7600     0.0200     4.0230 hn         1 CVW       0.127700
     28 H013        -3.7280    -1.0920     5.8420 hn         1 CVW       0.220467
@<TRIPOS>BOND
     1     1     2 1   
     2     1     9 ar  
     3     1    10 ar  
     4     2    14 1   
     5     2    15 1   
     6     2    16 1   
     7     3     4 1   
     8     3    12 1   
     9     3    17 1   
    10     3    18 1   
    11     4     5 1   
    12     4    19 1   
    13     4    20 1   
    14     5     6 2   
    15     5    11 1   
    16     6    13 1   
    17     6    21 1   
    18     7     8 ar  
    19     7    11 ar  
    20     7    13 1   
    21     8     9 ar  
    22     8    22 1   
    23     9    23 1   
    24    10    11 ar  
    25    10    24 1   
    26    12    25 1   
    27    12    26 1   
    28    12    28 1   
    29    13    27 1   
@<TRIPOS>SUBSTRUCTURE
     1 CVW         1 TEMP              0 ****  ****    0 ROOT
