@<TRIPOS>MOLECULE
CVX
   21    20     1     0     0
SMALL
bcc


@<TRIPOS>ATOM
      1 C5          0.0950   -0.1280   -0.0290 c3        1 CVX     -0.087100
      2 C4          1.5960   -0.0520    0.0790 c3        1 CVX     -0.081400
      3 C3          2.0530   -0.0350    1.5210 c3        1 CVX     -0.083400
      4 C2          3.5690    0.0430    1.6090 c3        1 CVX      0.170400
      5 O3          3.9590    0.0560    2.9480 os        1 CVX     -0.587200
      6 P           5.6270    0.1430    3.0760 p5        1 CVX      1.337600
      7 C1          5.7630    0.1420    4.7590 c3        1 CVX     -0.363300
      8 O2          6.0040    1.4620    2.5160 o         1 CVX     -0.868500
      9 OX0         6.1400   -1.1240    2.5030 o         1 CVX     -0.868500
     10 H51C       -0.3810    0.7510    0.4690 hc        1 CVX      0.020700
     11 H52C       -0.2880   -1.0560    0.4610 hc        1 CVX      0.020700
     12 H53C       -0.2220   -0.1400   -1.1000 hc        1 CVX      0.020700
     13 H41C        1.9640    0.8730   -0.4390 hc        1 CVX      0.035700
     14 H42C        2.0570   -0.9290   -0.4480 hc        1 CVX      0.035700
     15 H31C        1.6070    0.8420    2.0570 hc        1 CVX      0.035700
     16 H32C        1.7010   -0.9590    2.0480 hc        1 CVX      0.035700
     17 H21C        3.9470    0.9810    1.1130 h1        1 CVX      0.026700
     18 H22C        4.0420   -0.8460    1.1040 h1        1 CVX      0.026700
     19 H11C        6.2570    1.0710    5.1180 hc        1 CVX      0.057700
     20 H12C        6.3610   -0.7270    5.1090 hc        1 CVX      0.057700
     21 H13C        4.7640    0.0820    5.2460 hc        1 CVX      0.057700
@<TRIPOS>BOND
     1    1    2 1   
     2    1   10 1   
     3    1   11 1   
     4    1   12 1   
     5    2    3 1   
     6    2   13 1   
     7    2   14 1   
     8    3    4 1   
     9    3   15 1   
    10    3   16 1   
    11    4    5 1   
    12    4   17 1   
    13    4   18 1   
    14    5    6 1   
    15    6    7 1   
    16    6    8 1   
    17    6    9 1   
    18    7   19 1   
    19    7   20 1   
    20    7   21 1   
@<TRIPOS>SUBSTRUCTURE
     1 CVX         1 TEMP              0 ****  ****    0 ROOT
