@<TRIPOS>MOLECULE
molecule
   21    20     1     0     0
SMALL
bcc


@<TRIPOS>ATOM
      1 C5           0.0000     0.0000     0.0000 c3         1 CVX      -0.090100
      2 C4           1.5310     0.0000     0.0000 c3         1 CVX      -0.085400
      3 C3           2.0410     0.0000     1.4420 c3         1 CVX      -0.091400
      4 C2           3.5710     0.0000     1.4420 c3         1 CVX       0.226400
      5 O3           4.0470    -0.0000     2.7890 os         1 CVX      -0.613200
      6 P            5.6120    -0.0000     3.1650 p5         1 CVX       1.172600
      7 C1           5.8040     0.1480     4.9730 c3         1 CVX      -0.280300
      8 O2           6.2790     1.1430     2.5030 o          1 CVX      -0.824000
      9 OX0          6.2850    -1.3760     2.6670 o          1 CVX      -0.824000
     10 H51C        -0.3610    -0.0000    -1.0210 hc         1 CVX       0.024367
     11 H52C        -0.3610     0.8850     0.5110 hc         1 CVX       0.024367
     12 H53C        -0.3610    -0.8840     0.5110 hc         1 CVX       0.024367
     13 H41C         1.8920     0.8850    -0.5110 hc         1 CVX       0.038200
     14 H42C         1.8920    -0.8850    -0.5110 hc         1 CVX       0.038200
     15 H31C         1.6800     0.8850     1.9530 hc         1 CVX       0.040700
     16 H32C         1.6800    -0.8850     1.9530 hc         1 CVX       0.040700
     17 H21C         3.9310     0.8850     0.9310 h1         1 CVX       0.028200
     18 H22C         3.9310    -0.8840     0.9310 h1         1 CVX       0.028200
     19 H11C         5.3590     1.0780     5.3080 hc         1 CVX       0.040367
     20 H12C         6.8570     0.1400     5.2260 hc         1 CVX       0.040367
     21 H13C         5.3090    -0.6840     5.4580 hc         1 CVX       0.040367
@<TRIPOS>BOND
     1     1     2 1
     2     2     3 1
     3     3     4 1
     4     4     5 1
     5     5     6 1
     6     6     7 1
     7     6     8 1
     8     6     9 1
     9     1    10 1
    10     1    11 1
    11     1    12 1
    12     2    13 1
    13     2    14 1
    14     3    15 1
    15     3    16 1
    16     4    17 1
    17     4    18 1
    18     7    19 1
    19     7    20 1
    20     7    21 1
@<TRIPOS>SUBSTRUCTURE
     1 CVX         1 TEMP              0 ****  ****    0 ROOT
