@<TRIPOS>MOLECULE
molecule
   89    91     1     0     0
SMALL
bcc


@<TRIPOS>ATOM
      1 C01          0.0000     0.0000     0.0000 c3         1 CVZ      -0.138100
      2 C02          1.5300     0.0000     0.0000 c3         1 CVZ       0.146800
      3 C04          1.5940     1.2150     2.0940 c3         1 CVZ       0.165800
      4 C05          2.2730     2.4350     1.4680 c3         1 CVZ      -0.078400
      5 C06          1.8300     3.6990     2.2060 c3         1 CVZ      -0.080400
      6 C07          2.5090     4.9190     1.5800 c3         1 CVZ      -0.103400
      7 C08          2.0660     6.1840     2.3170 c3         1 CVZ       0.103000
      8 C10          2.1060     8.0130     0.6870 cc         1 CVZ       0.083400
      9 C11          0.7710     7.5420     0.1710 c3         1 CVZ      -0.062900
     10 C12          2.7030     9.0930     0.1380 cd         1 CVZ      -0.333200
     11 C13          3.9540     9.5200     0.6440 c          1 CVZ       0.709700
     12 C17          6.4310    10.2090     1.5620 c2         1 CVZ      -0.202200
     13 C18          7.6470    10.8060     2.2200 c3         1 CVZ      -0.044200
     14 C19          8.8440    10.6990     1.2730 c3         1 CVZ      -0.071400
     15 C20         10.0800    11.3050     1.9410 c3         1 CVZ       0.164800
     16 C22         12.4990    11.3000     1.8230 c3         1 CVZ       0.149800
     17 C23         12.7220    10.1010     2.7460 c3         1 CVZ      -0.090100
     18 C24         11.1950    12.0120    -0.0890 c3         1 CVZ       0.189100
     19 C25         12.2660    11.6260    -1.0750 ca         1 CVZ      -0.015300
     20 C26         12.0640    10.5600    -1.9330 ca         1 CVZ      -0.137200
     21 C27         13.0470    10.2050    -2.8370 ca         1 CVZ      -0.071000
     22 C28         14.2320    10.9140    -2.8840 ca         1 CVZ      -0.139000
     23 C29         14.4340    11.9800    -2.0250 ca         1 CVZ      -0.090000
     24 C30         13.4490    12.3380    -1.1250 ca         1 CVZ      -0.138000
     25 C34          3.9080     7.7650     2.1870 c          1 CVZ       0.809500
     26 C36          1.5810    -1.2060     2.1000 c3         1 CVZ       0.193100
     27 C37          2.3200    -2.4050     1.5620 ca         1 CVZ      -0.018300
     28 C38          3.6420    -2.6120     1.9050 ca         1 CVZ      -0.136200
     29 C39          4.3210    -3.7100     1.4130 ca         1 CVZ      -0.071000
     30 C40          3.6770    -4.6030     0.5770 ca         1 CVZ      -0.137000
     31 C41          2.3530    -4.3970     0.2350 ca         1 CVZ      -0.090000
     32 C42          1.6740    -3.3000     0.7310 ca         1 CVZ      -0.137000
     33 N03          2.0190     0.0000     1.3850 n3         1 CVZ      -0.708600
     34 N09          2.7160     7.3520     1.7190 n          1 CVZ      -0.361000
     35 N15          4.5230     8.8410     1.6610 n          1 CVZ      -0.364600
     36 N21         11.2500    11.1150     1.0720 n3         1 CVZ      -0.713600
     37 N31         10.7950     9.8000    -1.8820 no         1 CVZ       0.296200
     38 N43          4.3330    -1.6550     2.8010 no         1 CVZ       0.299200
     39 O32         10.6160     8.8620    -2.6380 o          1 CVZ      -0.202500
     40 O33          9.9280    10.1130    -1.0850 o          1 CVZ      -0.202500
     41 O35          4.4330     7.1640     3.1040 o          1 CVZ      -0.643500
     42 O44          5.4990    -1.8370     3.1030 o          1 CVZ      -0.204000
     43 O45          3.7360    -0.6870     3.2340 o          1 CVZ      -0.204000
     44 H1          -0.3610     0.9140    -0.4560 hc         1 CVZ       0.037367
     45 H2          -0.3610    -0.8520    -0.5640 hc         1 CVZ       0.037367
     46 H3          -0.3610    -0.0620     1.0190 hc         1 CVZ       0.037367
     47 H4           1.8910    -0.8840    -0.5110 h1         1 CVZ       0.057700
     48 H5           1.8910     0.8850    -0.5110 h1         1 CVZ       0.057700
     49 H6           1.8750     1.1410     3.1370 h1         1 CVZ       0.039700
     50 H7           0.5190     1.3210     2.0150 h1         1 CVZ       0.039700
     51 H8           1.9930     2.5090     0.4250 hc         1 CVZ       0.053200
     52 H9           3.3480     2.3290     1.5470 hc         1 CVZ       0.053200
     53 H10          0.7540     3.8050     2.1280 hc         1 CVZ       0.042700
     54 H11          2.1100     3.6260     3.2500 hc         1 CVZ       0.042700
     55 H12          3.5840     4.8130     1.6580 hc         1 CVZ       0.057200
     56 H13          2.2280     4.9920     0.5360 hc         1 CVZ       0.057200
     57 H14          0.9910     6.2900     2.2390 h1         1 CVZ       0.071200
     58 H15          2.3470     6.1100     3.3610 h1         1 CVZ       0.071200
     59 H16          0.0790     7.4410     0.9980 hc         1 CVZ       0.061033
     60 H17          0.8910     6.5830    -0.3180 hc         1 CVZ       0.061033
     61 H18          0.3830     8.2630    -0.5390 hc         1 CVZ       0.061033
     62 H19          2.2300     9.6250    -0.6780 ha         1 CVZ       0.176000
     63 H20          6.0790     8.9010     3.1400 h4         1 CVZ       0.165000
     64 H21          6.0250    10.6700     0.6690 ha         1 CVZ       0.207000
     65 H22          7.4600    11.8480     2.4480 hc         1 CVZ       0.040200
     66 H23          7.8620    10.2690     3.1360 hc         1 CVZ       0.040200
     67 H24          8.6290    11.2360     0.3570 hc         1 CVZ       0.065200
     68 H25          9.0320     9.6560     1.0450 hc         1 CVZ       0.065200
     69 H26          9.9200    12.3630     2.1040 h1         1 CVZ       0.031700
     70 H27         10.2530    10.8150     2.8920 h1         1 CVZ       0.031700
     71 H28         12.4520    12.2070     2.4140 h1         1 CVZ       0.029700
     72 H29         13.3180    11.3700     1.1180 h1         1 CVZ       0.029700
     73 H30         12.1380    10.2280     3.6500 hc         1 CVZ       0.040033
     74 H31         13.7730    10.0330     3.0020 hc         1 CVZ       0.040033
     75 H32         12.4140     9.1940     2.2410 hc         1 CVZ       0.040033
     76 H33         10.2230    11.9320    -0.5620 h1         1 CVZ       0.060700
     77 H34         11.3540    13.0330     0.2360 h1         1 CVZ       0.060700
     78 H35         12.8880     9.3700    -3.5090 ha         1 CVZ       0.165000
     79 H36         15.0030    10.6340    -3.5910 ha         1 CVZ       0.145000
     80 H37         15.3620    12.5370    -2.0630 ha         1 CVZ       0.140000
     81 H38         13.6080    13.1730    -0.4530 ha         1 CVZ       0.146000
     82 H39          0.5160    -1.3440     1.9560 h1         1 CVZ       0.058700
     83 H40          1.7910    -1.0970     3.1570 h1         1 CVZ       0.058700
     84 H41          5.3580    -3.8720     1.6820 ha         1 CVZ       0.166000
     85 H42          4.2090    -5.4640     0.1900 ha         1 CVZ       0.146000
     86 H43          1.8470    -5.0980    -0.4190 ha         1 CVZ       0.141000
     87 H44          0.6370    -3.1390     0.4630 ha         1 CVZ       0.145000
     88 O14          4.5120    10.4900     0.1660 o          1 CVZ      -0.620500
     89 C16          5.7550     9.2540     2.1680 c2         1 CVZ      -0.074400
@<TRIPOS>BOND
     1    24    23 ar
     2    24    19 ar
     3    18    19 1
     4    18    36 1
     5    23    22 ar
     6    88    11 2
     7    19    20 ar
     8    16    36 1
     9    16    17 1
    10    36    15 1
    11    10    11 1
    12    10     8 2
    13    15    14 1
    14    22    21 ar
    15    11    35 1
    16    40    37 1
    17    20    21 ar
    18    20    37 1
    19     9     8 1
    20     8    34 1
    21    14    13 1
    22    37    39 1
    23    35    89 1
    24    35    25 1
    25    89    12 2
    26    34    25 1
    27    34     7 1
    28    12    13 1
    29    25    41 2
    30     7     6 1
    31     6     5 1
    32     5     4 1
    33    42    38 1
    34    43    38 1
    35    38    28 1
    36     4     3 1
    37     3    33 1
    38    28    29 ar
    39    28    27 ar
    40    29    30 ar
    41    27    26 1
    42    27    32 ar
    43    33    26 1
    44    33     2 1
    45    30    31 ar
    46    32    31 ar
    47     2     1 1
    48     1    44 1
    49     1    45 1
    50     1    46 1
    51     2    47 1
    52     2    48 1
    53     3    49 1
    54     3    50 1
    55     4    51 1
    56     4    52 1
    57     5    53 1
    58     5    54 1
    59     6    55 1
    60     6    56 1
    61     7    57 1
    62     7    58 1
    63     9    59 1
    64     9    60 1
    65     9    61 1
    66    10    62 1
    67    89    63 1
    68    12    64 1
    69    13    65 1
    70    13    66 1
    71    14    67 1
    72    14    68 1
    73    15    69 1
    74    15    70 1
    75    16    71 1
    76    16    72 1
    77    17    73 1
    78    17    74 1
    79    17    75 1
    80    18    76 1
    81    18    77 1
    82    21    78 1
    83    22    79 1
    84    23    80 1
    85    24    81 1
    86    26    82 1
    87    26    83 1
    88    29    84 1
    89    30    85 1
    90    31    86 1
    91    32    87 1
@<TRIPOS>SUBSTRUCTURE
     1 CVZ         1 TEMP              0 ****  ****    0 ROOT
