@<TRIPOS>MOLECULE
CVZ
   89    91     1     0     0
SMALL
bcc


@<TRIPOS>ATOM
      1 C01          0.0000     0.0000     0.0000 c3         1 CVZ      -0.048100
      2 C02          1.5300     0.0000     0.0000 c3         1 CVZ       0.125800
      3 C04          1.5940     1.2150     2.0940 c3         1 CVZ       0.146800
      4 C05          2.2730     2.4350     1.4680 c3         1 CVZ      -0.034400
      5 C06          1.8300     3.6990     2.2060 c3         1 CVZ      -0.020400
      6 C07          2.5090     4.9190     1.5800 c3         1 CVZ      -0.050400
      7 C08          2.0660     6.1840     2.3170 c3         1 CVZ       0.016000
      8 C10          2.1060     8.0130     0.6870 cc         1 CVZ      -0.085600
      9 C11          0.7710     7.5420     0.1710 c3         1 CVZ       0.051100
     10 C12          2.7030     9.0930     0.1380 cd         1 CVZ      -0.303200
     11 C13          3.9540     9.5200     0.6440 c          1 CVZ       0.576700
     12 C17          6.4310    10.2090     1.5620 c2         1 CVZ      -0.203200
     13 C18          7.6470    10.8060     2.2200 c3         1 CVZ       0.120800
     14 C19          8.8440    10.6990     1.2730 c3         1 CVZ      -0.075400
     15 C20         10.0800    11.3050     1.9410 c3         1 CVZ       0.154800
     16 C22         12.4990    11.3000     1.8230 c3         1 CVZ       0.129800
     17 C23         12.7220    10.1010     2.7460 c3         1 CVZ       0.000900
     18 C24         11.1950    12.0120    -0.0890 c3         1 CVZ       0.158100
     19 C25         12.2660    11.6260    -1.0750 ca         1 CVZ       0.012700
     20 C26         12.0640    10.5600    -1.9330 ca         1 CVZ      -0.432200
     21 C27         13.0470    10.2050    -2.8370 ca         1 CVZ      -0.009000
     22 C28         14.2320    10.9140    -2.8840 ca         1 CVZ      -0.124000
     23 C29         14.4340    11.9800    -2.0250 ca         1 CVZ      -0.039000
     24 C30         13.4490    12.3380    -1.1250 ca         1 CVZ      -0.124000
     25 C34          3.9080     7.7650     2.1870 c          1 CVZ       0.583500
     26 C36          1.5810    -1.2060     2.1000 c3         1 CVZ       0.165100
     27 C37          2.3200    -2.4050     1.5620 ca         1 CVZ       0.009700
     28 C38          3.6420    -2.6120     1.9050 ca         1 CVZ      -0.430200
     29 C39          4.3210    -3.7100     1.4130 ca         1 CVZ      -0.010000
     30 C40          3.6770    -4.6030     0.5770 ca         1 CVZ      -0.124000
     31 C41          2.3530    -4.3970     0.2350 ca         1 CVZ      -0.041000
     32 C42          1.6740    -3.3000     0.7310 ca         1 CVZ      -0.124000
     33 N03          2.0190     0.0000     1.3850 n3         1 CVZ      -0.516600
     34 N09          2.7160     7.3520     1.7190 n          1 CVZ       0.057000
     35 N15          4.5230     8.8410     1.6610 n          1 CVZ      -0.006600
     36 N21         11.2500    11.1150     1.0720 n3         1 CVZ      -0.520600
     37 N31         10.7950     9.8000    -1.8820 no         1 CVZ       1.052200
     38 N43          4.3330    -1.6550     2.8010 no         1 CVZ       1.053200
     39 O32         10.6160     8.8620    -2.6380 o          1 CVZ      -0.449500
     40 O33          9.9280    10.1130    -1.0850 o          1 CVZ      -0.449500
     41 O35          4.4330     7.1640     3.1040 o          1 CVZ      -0.676500
     42 O44          5.4990    -1.8370     3.1030 o          1 CVZ      -0.449000
     43 O45          3.7360    -0.6870     3.2340 o          1 CVZ      -0.449000
     44 H1          -0.3610     0.9140    -0.4570 hc         1 CVZ       0.011033
     45 H2          -0.3610    -0.8520    -0.5630 hc         1 CVZ       0.011033
     46 H3          -0.3620    -0.0620     1.0190 hc         1 CVZ       0.011033
     47 H4           1.8910    -0.8850    -0.5110 h1         1 CVZ       0.029700
     48 H5           1.8910     0.8840    -0.5110 h1         1 CVZ       0.029700
     49 H6           0.5190     1.3210     2.0160 h1         1 CVZ       0.019200
     50 H7           1.8750     1.1410     3.1370 h1         1 CVZ       0.019200
     51 H8           3.3480     2.3290     1.5470 hc         1 CVZ       0.025700
     52 H9           1.9920     2.5090     0.4250 hc         1 CVZ       0.025700
     53 H10          2.1100     3.6260     3.2500 hc         1 CVZ       0.015700
     54 H11          0.7540     3.8050     2.1280 hc         1 CVZ       0.015700
     55 H12          2.2280     4.9920     0.5360 hc         1 CVZ       0.027700
     56 H13          3.5840     4.8130     1.6580 hc         1 CVZ       0.027700
     57 H14          2.3470     6.1100     3.3610 h1         1 CVZ       0.047200
     58 H15          0.9910     6.2900     2.2390 h1         1 CVZ       0.047200
     59 H16          0.8940     6.5910    -0.3330 hc         1 CVZ       0.022367
     60 H17          0.3750     8.2710    -0.5260 hc         1 CVZ       0.022367
     61 H18          0.0840     7.4250     1.0000 hc         1 CVZ       0.022367
     62 H19          2.2300     9.6250    -0.6780 ha         1 CVZ       0.151000
     63 H20          5.7130     8.5040     1.3880 h4         1 CVZ       0.077000
     64 H21          7.3980     9.7340     1.4460 ha         1 CVZ       0.082000
     65 H22          7.8620    10.2690     3.1360 hc         1 CVZ       0.014200
     66 H23          7.4590    11.8480     2.4480 hc         1 CVZ       0.014200
     67 H24          8.6290    11.2360     0.3570 hc         1 CVZ       0.050700
     68 H25          9.0320     9.6570     1.0440 hc         1 CVZ       0.050700
     69 H26          9.9200    12.3630     2.1040 h1         1 CVZ       0.011200
     70 H27         10.2530    10.8150     2.8920 h1         1 CVZ       0.011200
     71 H28         13.3190    11.3700     1.1180 h1         1 CVZ       0.009700
     72 H29         12.4520    12.2070     2.4140 h1         1 CVZ       0.009700
     73 H30         13.7850     9.9470     2.8870 hc         1 CVZ       0.007700
     74 H31         12.2840     9.2160     2.3010 hc         1 CVZ       0.007700
     75 H32         12.2550    10.2920     3.7050 hc         1 CVZ       0.007700
     76 H33         11.3540    13.0330     0.2360 h1         1 CVZ       0.043200
     77 H34         10.2230    11.9320    -0.5620 h1         1 CVZ       0.043200
     78 H35         12.8880     9.3700    -3.5090 ha         1 CVZ       0.132000
     79 H36         15.0030    10.6340    -3.5910 ha         1 CVZ       0.115000
     80 H37         15.3620    12.5370    -2.0630 ha         1 CVZ       0.106000
     81 H38         13.6080    13.1730    -0.4530 ha         1 CVZ       0.118000
     82 H39          1.7910    -1.0970     3.1570 h1         1 CVZ       0.040200
     83 H40          0.5160    -1.3440     1.9560 h1         1 CVZ       0.040200
     84 H41          5.3580    -3.8720     1.6820 ha         1 CVZ       0.132000
     85 H42          4.2090    -5.4640     0.1900 ha         1 CVZ       0.115000
     86 H43          1.8470    -5.0980    -0.4180 ha         1 CVZ       0.106000
     87 H44          0.6370    -3.1390     0.4630 ha         1 CVZ       0.117000
     88 O14          4.5120    10.4900     0.1660 o          1 CVZ      -0.597500
     89 C16          5.7550     9.2540     2.1680 c2         1 CVZ      -0.066400
@<TRIPOS>BOND
     1     1     2 1   
     2     1    44 1   
     3     1    45 1   
     4     1    46 1   
     5     2    33 1   
     6     2    47 1   
     7     2    48 1   
     8     3     4 1   
     9     3    33 1   
    10     3    49 1   
    11     3    50 1   
    12     4     5 1   
    13     4    51 1   
    14     4    52 1   
    15     5     6 1   
    16     5    53 1   
    17     5    54 1   
    18     6     7 1   
    19     6    55 1   
    20     6    56 1   
    21     7    34 1   
    22     7    57 1   
    23     7    58 1   
    24     8     9 1   
    25     8    10 2   
    26     8    34 1   
    27     9    59 1   
    28     9    60 1   
    29     9    61 1   
    30    10    11 1   
    31    10    62 1   
    32    11    35 1   
    33    11    88 2   
    34    12    13 1   
    35    12    64 1   
    36    12    89 2   
    37    13    14 1   
    38    13    65 1   
    39    13    66 1   
    40    14    15 1   
    41    14    67 1   
    42    14    68 1   
    43    15    36 1   
    44    15    69 1   
    45    15    70 1   
    46    16    17 1   
    47    16    36 1   
    48    16    71 1   
    49    16    72 1   
    50    17    73 1   
    51    17    74 1   
    52    17    75 1   
    53    18    19 1   
    54    18    36 1   
    55    18    76 1   
    56    18    77 1   
    57    19    20 ar  
    58    19    24 ar  
    59    20    21 ar  
    60    20    37 1   
    61    21    22 ar  
    62    21    78 1   
    63    22    23 ar  
    64    22    79 1   
    65    23    24 ar  
    66    23    80 1   
    67    24    81 1   
    68    25    34 1   
    69    25    35 1   
    70    25    41 2   
    71    26    27 1   
    72    26    33 1   
    73    26    82 1   
    74    26    83 1   
    75    27    28 ar  
    76    27    32 ar  
    77    28    29 ar  
    78    28    38 1   
    79    29    30 ar  
    80    29    84 1   
    81    30    31 ar  
    82    30    85 1   
    83    31    32 ar  
    84    31    86 1   
    85    32    87 1   
    86    35    89 1   
    87    37    39 1   
    88    37    40 1   
    89    38    42 1   
    90    38    43 1   
    91    63    89 1   
@<TRIPOS>SUBSTRUCTURE
     1 CVZ         1 TEMP              0 ****  ****    0 ROOT
