@<TRIPOS>MOLECULE
CW2
   40    39     1     0     0
SMALL
bcc


@<TRIPOS>ATOM
      1 C05          0.0000     0.0000     0.0000 c3         1 CW2       0.006600
      2 C07          1.5070     0.0000     0.0000 c          1 CW2       0.547100
      3 C10          3.6460    -0.0010     1.1680 c3         1 CW2       0.049000
      4 C11          4.1550     0.0010     2.6110 c3         1 CW2      -0.042400
      5 C12          5.6850    -0.0000     2.6110 c3         1 CW2      -0.022400
      6 C13          6.1940     0.0010     4.0540 c3         1 CW2      -0.028400
      7 C14          7.7250     0.0010     4.0540 c3         1 CW2      -0.028400
      8 C15          8.2340     0.0030     5.4970 c3         1 CW2      -0.022400
      9 C16          9.7640     0.0020     5.4980 c3         1 CW2      -0.042400
     10 C17         10.2740     0.0030     6.9400 c3         1 CW2       0.049000
     11 C19         12.4120     0.0020     8.1080 c          1 CW2       0.547100
     12 C21         13.9190     0.0020     8.1080 c3         1 CW2       0.006600
     13 N09          2.1810     0.0000     1.1680 ns         1 CW2      -0.183400
     14 N18         11.7390     0.0020     6.9410 ns         1 CW2      -0.183400
     15 O08          2.1140    -0.0010    -1.0500 o          1 CW2      -0.612600
     16 O20         11.8050     0.0040     9.1580 o          1 CW2      -0.612600
     17 Cl6         -0.6000     0.1470    -1.6940 cl         1 CW2      -0.057900
     18 Cl2         14.5190    -0.1450     9.8020 cl         1 CW2      -0.057900
     19 Cl3         14.5200    -1.3920     7.1350 cl         1 CW2      -0.057900
     20 H1          -0.3610    -0.9250     0.4330 h2         1 CW2       0.055700
     21 H3           4.0070    -0.8860     0.6590 h1         1 CW2       0.030200
     22 H4           4.0070     0.8830     0.6560 h1         1 CW2       0.030200
     23 H5           3.7940     0.8860     3.1200 hc         1 CW2       0.018200
     24 H6           3.7930    -0.8830     3.1220 hc         1 CW2       0.018200
     25 H7           6.0460    -0.8860     2.1020 hc         1 CW2       0.019200
     26 H8           6.0470     0.8830     2.1000 hc         1 CW2       0.019200
     27 H9           5.8330     0.8870     4.5630 hc         1 CW2       0.016700
     28 H10          5.8330    -0.8830     4.5650 hc         1 CW2       0.016700
     29 H11          8.0860     0.8850     3.5430 hc         1 CW2       0.016700
     30 H12          8.0860    -0.8840     3.5450 hc         1 CW2       0.016700
     31 H13          7.8720    -0.8810     6.0090 hc         1 CW2       0.019200
     32 H14          7.8730     0.8880     6.0060 hc         1 CW2       0.019200
     33 H15         10.1260     0.8850     4.9860 hc         1 CW2       0.018200
     34 H16         10.1250    -0.8840     4.9880 hc         1 CW2       0.018200
     35 H17          9.9120    -0.8810     7.4520 h1         1 CW2       0.030200
     36 H18          9.9130     0.8880     7.4500 h1         1 CW2       0.030200
     37 H19         14.2810     0.9280     7.6760 h2         1 CW2       0.055700
     38 H20          1.6800    -0.0160     2.0340 hn         1 CW2       0.177500
     39 H21         12.2390     0.0190     6.0740 hn         1 CW2       0.177500
     40 Cl4         -0.6010     1.3950     0.9730 cl         1 CW2      -0.057900
@<TRIPOS>BOND
     1     1     2 1   
     2     1    17 1   
     3     1    20 1   
     4     1    40 1   
     5     2    13 1   
     6     2    15 2   
     7     3     4 1   
     8     3    13 1   
     9     3    21 1   
    10     3    22 1   
    11     4     5 1   
    12     4    23 1   
    13     4    24 1   
    14     5     6 1   
    15     5    25 1   
    16     5    26 1   
    17     6     7 1   
    18     6    27 1   
    19     6    28 1   
    20     7     8 1   
    21     7    29 1   
    22     7    30 1   
    23     8     9 1   
    24     8    31 1   
    25     8    32 1   
    26     9    10 1   
    27     9    33 1   
    28     9    34 1   
    29    10    14 1   
    30    10    35 1   
    31    10    36 1   
    32    11    12 1   
    33    11    14 1   
    34    11    16 2   
    35    12    18 1   
    36    12    19 1   
    37    12    37 1   
    38    13    38 1   
    39    14    39 1   
@<TRIPOS>SUBSTRUCTURE
     1 CW2         1 TEMP              0 ****  ****    0 ROOT
