@<TRIPOS>MOLECULE
molecule
   40    39     1     0     0
SMALL
bcc


@<TRIPOS>ATOM
      1 C05          0.0000     0.0000     0.0000 c3         1 CW2       0.083100
      2 C07          1.5070     0.0000     0.0000 c          1 CW2       0.646100
      3 C10          3.6460    -0.0010     1.1680 c3         1 CW2       0.113500
      4 C11          4.1550     0.0010     2.6110 c3         1 CW2      -0.101400
      5 C12          5.6850    -0.0000     2.6110 c3         1 CW2      -0.077400
      6 C13          6.1940     0.0010     4.0540 c3         1 CW2      -0.081400
      7 C14          7.7250     0.0010     4.0540 c3         1 CW2      -0.081400
      8 C15          8.2340     0.0030     5.4970 c3         1 CW2      -0.077400
      9 C16          9.7640     0.0020     5.4980 c3         1 CW2      -0.101400
     10 C17         10.2740     0.0030     6.9400 c3         1 CW2       0.113500
     11 C19         12.4120     0.0020     8.1080 c          1 CW2       0.646100
     12 C21         13.9190     0.0020     8.1080 c3         1 CW2       0.083100
     13 N09          2.1810     0.0000     1.1680 ns         1 CW2      -0.577400
     14 N18         11.7390     0.0020     6.9410 ns         1 CW2      -0.577400
     15 O08          2.1140    -0.0010    -1.0500 o          1 CW2      -0.564600
     16 O20         11.8050     0.0040     9.1580 o          1 CW2      -0.564600
     17 Cl6         -0.6000     0.1470    -1.6940 cl         1 CW2      -0.130150
     18 Cl2         14.5190    -0.1450     9.8020 cl         1 CW2      -0.130150
     19 Cl3         14.5200    -1.3920     7.1350 cl         1 CW2      -0.130150
     20 H1          -0.3610    -0.9250     0.4330 h2         1 CW2       0.107700
     21 H3           4.0070    -0.8860     0.6590 h1         1 CW2       0.057700
     22 H4           4.0070     0.8830     0.6560 h1         1 CW2       0.057700
     23 H5           3.7940     0.8860     3.1200 hc         1 CW2       0.047450
     24 H6           3.7930    -0.8830     3.1220 hc         1 CW2       0.047450
     25 H7           6.0460    -0.8860     2.1020 hc         1 CW2       0.047200
     26 H8           6.0470     0.8830     2.1000 hc         1 CW2       0.047200
     27 H9           5.8330     0.8870     4.5630 hc         1 CW2       0.044200
     28 H10          5.8330    -0.8830     4.5650 hc         1 CW2       0.044200
     29 H11          8.0860     0.8850     3.5430 hc         1 CW2       0.044200
     30 H12          8.0860    -0.8840     3.5450 hc         1 CW2       0.044200
     31 H13          7.8720    -0.8810     6.0090 hc         1 CW2       0.047200
     32 H14          7.8730     0.8880     6.0060 hc         1 CW2       0.047200
     33 H15         10.1260     0.8850     4.9860 hc         1 CW2       0.047450
     34 H16         10.1250    -0.8840     4.9880 hc         1 CW2       0.047450
     35 H17          9.9120    -0.8810     7.4520 h1         1 CW2       0.057700
     36 H18          9.9130     0.8880     7.4500 h1         1 CW2       0.057700
     37 H19         14.2810     0.9280     7.6760 h2         1 CW2       0.107700
     38 H20          1.6800    -0.0160     2.0340 hn         1 CW2       0.319500
     39 H21         12.2390     0.0190     6.0740 hn         1 CW2       0.319500
     40 Cl4         -0.6010     1.3950     0.9730 cl         1 CW2      -0.130150
@<TRIPOS>BOND
     1    18    12 1
     2    19    12 1
     3    12    11 1
     4    14    11 1
     5    14    10 1
     6    11    16 2
     7    10     9 1
     8     9     8 1
     9     8     7 1
    10     7     6 1
    11     6     5 1
    12     5     4 1
    13     4     3 1
    14     3    13 1
    15    13     2 1
    16    17     1 1
    17     2     1 1
    18     2    15 2
    19     1    20 1
    20     3    21 1
    21     3    22 1
    22     4    23 1
    23     4    24 1
    24     5    25 1
    25     5    26 1
    26     6    27 1
    27     6    28 1
    28     7    29 1
    29     7    30 1
    30     8    31 1
    31     8    32 1
    32     9    33 1
    33     9    34 1
    34    10    35 1
    35    10    36 1
    36    12    37 1
    37    13    38 1
    38    14    39 1
    39     1    40 1
@<TRIPOS>SUBSTRUCTURE
     1 CW2         1 TEMP              0 ****  ****    0 ROOT
