@<TRIPOS>MOLECULE
molecule
   36    38     1     0     0
SMALL
bcc


@<TRIPOS>ATOM
      1 C1           0.0000     0.0000     0.0000 ca         1 CW4      -0.098000
      2 C2           1.3830     0.0000     0.0000 ca         1 CW4      -0.129000
      3 C3           2.0740     0.0000     1.1940 ca         1 CW4      -0.064000
      4 C15         -0.4210    -2.4700     4.0940 cc         1 CW4       0.425400
      5 C17         -2.4370    -3.1450     4.4820 cd         1 CW4       0.336200
      6 C18         -2.5070    -1.8050     4.2390 cc         1 CW4      -0.221400
      7 C19         -3.7220    -0.9730     4.2370 ce         1 CW4      -0.094200
      8 C20         -4.9150    -1.5400     4.3780 c2         1 CW4      -0.205000
      9 C10         -0.7920    -0.0160     3.6900 c3         1 CW4       0.077300
     10 C4          -0.7020    -0.0030     1.1930 ca         1 CW4      -0.115000
     11 C5          -0.0230    -0.0090     2.3950 ca         1 CW4      -0.079300
     12 C6           1.3720    -0.0000     2.3980 ca         1 CW4      -0.171600
     13 C7           2.0970     0.0090     3.6900 c          1 CW4       0.743200
     14 C9           0.0840     0.5090     4.8310 c3         1 CW4       0.152800
     15 N14         -1.2180    -1.3840     3.9970 na         1 CW4      -0.181900
     16 N16         -1.1540    -3.5120     4.3800 nd         1 CW4      -0.699000
     17 O11          3.2970     0.1890     3.7410 o          1 CW4      -0.553500
     18 O8           1.3610    -0.1910     4.8130 os         1 CW4      -0.413900
     19 H1          -0.5380     0.0000    -0.9400 ha         1 CW4       0.139000
     20 H2           1.9240     0.0020    -0.9380 ha         1 CW4       0.142000
     21 H3           3.1580    -0.0000     1.1960 ha         1 CW4       0.160000
     22 H4          -0.0500     0.7310     6.9640 hc         1 CW4       0.057867
     23 H5          -1.6130     0.6880     6.1370 hc         1 CW4       0.057867
     24 H6          -0.6840    -0.8020     6.3510 hc         1 CW4       0.057867
     25 H7          -0.5910     2.5490     4.8800 hc         1 CW4       0.057867
     26 H8           0.6010     2.2070     3.6180 hc         1 CW4       0.057867
     27 H9           1.1120     2.3350     5.3070 hc         1 CW4       0.057867
     28 H10          0.6530    -2.4760     3.9560 h5         1 CW4       0.075100
     29 H11         -3.2710    -3.7970     4.7100 h4         1 CW4       0.043100
     30 H12         -3.6420     0.1010     4.1210 ha         1 CW4       0.118000
     31 H13         -5.8090    -0.9270     4.3760 ha         1 CW4       0.120500
     32 H14         -4.9950    -2.6140     4.4940 ha         1 CW4       0.120500
     33 H15         -1.6630     0.6200     3.5900 h1         1 CW4       0.090700
     34 H16         -1.7850    -0.0030     1.1830 ha         1 CW4       0.142000
     35 C12         -0.6170     0.2630     6.1680 c3         1 CW4      -0.103600
     36 C13          0.3180     2.0090     4.6450 c3         1 CW4      -0.103600
@<TRIPOS>BOND
     1     2     1 ar
     2     2     3 ar
     3     1    10 ar
     4     3    12 ar
     5    10    11 ar
     6    12    11 ar
     7    12    13 1
     8    36    14 1
     9    11     9 1
    10    13    17 2
    11    13    18 1
    12     9    14 1
    13     9    15 1
    14    14    18 1
    15    14    35 1
    16    15     4 1
    17    15     6 1
    18     8     7 2
    19     4    16 2
    20     6     7 1
    21     6     5 2
    22    16     5 1
    23     1    19 1
    24     2    20 1
    25     3    21 1
    26    35    22 1
    27    35    23 1
    28    35    24 1
    29    36    25 1
    30    36    26 1
    31    36    27 1
    32     4    28 1
    33     5    29 1
    34     7    30 1
    35     8    31 1
    36     8    32 1
    37     9    33 1
    38    10    34 1
@<TRIPOS>SUBSTRUCTURE
     1 CW4         1 TEMP              0 ****  ****    0 ROOT
