@<TRIPOS>MOLECULE
molecule
   53    56     1     0     0
SMALL
bcc


@<TRIPOS>ATOM
      1 C1           0.0000     0.0000     0.0000 ca         1 CW5      -0.029700
      2 C2           1.3930     0.0000     0.0000 ca         1 CW5      -0.107000
      3 C3           2.0520     0.0000     1.2170 ca         1 CW5      -0.024900
      4 C12         -0.4940    -1.5080    -4.4790 cc         1 CW5      -0.116700
      5 C13         -0.3060    -0.9450    -5.7050 cd         1 CW5       0.019400
      6 C15         -0.2230    -2.8760    -4.3010 cd         1 CW5       0.479200
      7 C16          0.3830    -3.0610    -6.5190 cc         1 CW5       0.396500
      8 C19          0.8130    -2.5650    -8.6620 cd         1 CW5       0.461600
      9 C20          0.8160    -3.5900    -7.7290 cd         1 CW5      -0.345600
     10 C22         -0.5810     0.5200    -5.9240 c3         1 CW5       0.190400
     11 C24         -1.7480     0.6790    -6.9020 c3         1 CW5      -0.092100
     12 C26         -0.2220    -0.6560    -2.2710 c          1 CW5       0.780100
     13 C29          1.8380    -0.0040     6.2080 c3         1 CW5       0.106500
     14 C30          0.7240    -0.6170     7.0920 c3         1 CW5      -0.100900
     15 C4           1.3040    -0.0010     2.3960 ca         1 CW5       0.360800
     16 N5          -0.0250    -0.0010     2.3550 nb         1 CW5      -0.650000
     17 C6          -0.6800    -0.0000     1.2170 ca         1 CW5       0.373200
     18 Cl7          3.7870    -0.0010     1.2770 cl         1 CW5      -0.034400
     19 C8           1.9960    -0.0030     3.7020 c          1 CW5       0.589600
     20 O9           3.2100    -0.0030     3.7460 o          1 CW5      -0.591100
     21 N10          1.2800    -0.0030     4.8430 n          1 CW5      -0.477800
     22 N11         -0.7060     0.0070    -1.2020 ns         1 CW5      -0.484100
     23 N14          0.2010    -3.6030    -5.3080 nc         1 CW5      -0.654000
     24 N17          0.1370    -1.7290    -6.7330 na         1 CW5       0.066200
     25 N18          0.4140    -1.4560    -8.0770 nc         1 CW5      -0.540100
     26 Cl2          1.2680    -2.7180   -10.3300 cl         1 CW5      -0.058300
     27 O23          0.5820     1.1470    -6.4650 os         1 CW5      -0.391600
     28 N25         -0.9470    -0.7280    -3.4040 ns         1 CW5      -0.492100
     29 O27          0.8700    -1.1880    -2.2140 o          1 CW5      -0.619100
     30 C31         -0.5540    -0.0320     6.4330 c3         1 CW5      -0.100900
     31 C32         -0.1880    -0.0030     4.9350 c3         1 CW5       0.106500
     32 H1           1.9470     0.0010    -0.9310 ha         1 CW5       0.192000
     33 H2          -0.3700    -3.3330    -3.3290 h4         1 CW5       0.051100
     34 H3           1.0970    -4.6210    -7.9120 ha         1 CW5       0.182000
     35 H4          -0.8360     0.9850    -4.9790 h1         1 CW5       0.046700
     36 H5          -2.5530     1.2190    -6.4190 hc         1 CW5       0.055367
     37 H6          -1.4160     1.2290    -7.7740 hc         1 CW5       0.055367
     38 H7          -2.1000    -0.3000    -7.2060 hc         1 CW5       0.055367
     39 H8           2.0950     2.4360    -5.9180 h1         1 CW5       0.037033
     40 H9           2.1080     0.8630    -5.1090 h1         1 CW5       0.037033
     41 H10          0.9070     2.0800    -4.6560 h1         1 CW5       0.037033
     42 H11          2.7300    -0.6180     6.2480 h1         1 CW5       0.055950
     43 H12          2.0550     1.0090     6.5250 h1         1 CW5       0.055950
     44 H13          0.7310    -1.6980     7.0270 hc         1 CW5       0.054200
     45 H14          0.8170    -0.2820     8.1180 hc         1 CW5       0.054200
     46 H15         -1.7630    -0.0000     1.2240 h4         1 CW5       0.025100
     47 H16         -1.5780     0.4930    -1.2680 hn         1 CW5       0.324500
     48 H17         -1.8120    -0.2300    -3.4770 hn         1 CW5       0.322500
     49 H18         -0.7470     0.9700     6.7980 hc         1 CW5       0.054200
     50 H19         -1.4040    -0.6810     6.6060 hc         1 CW5       0.054200
     51 H20         -0.5850     0.8950     4.4770 h1         1 CW5       0.055950
     52 H21         -0.5870    -0.8820     4.4430 h1         1 CW5       0.055950
     53 C28          1.4770     1.6630    -5.4770 c3         1 CW5       0.119700
@<TRIPOS>BOND
     1    23     6 2
     2    23     7 1
     3     6     4 1
     4     9     7 2
     5     9     8 1
     6     7    24 1
     7     4    28 1
     8     4     5 2
     9    29    12 2
    10    28    12 1
    11    12    22 1
    12    20    19 2
    13    24     5 1
    14    24    25 1
    15    18     3 1
    16     2     3 ar
    17     2     1 ar
    18     8    26 1
    19     8    25 2
    20    22     1 1
    21     5    10 1
    22     3    15 ar
    23     1    17 ar
    24    15    16 ar
    25    15    19 1
    26    17    16 ar
    27    19    21 1
    28    11    10 1
    29    10    27 1
    30    21    13 1
    31    21    31 1
    32    13    14 1
    33    27    53 1
    34    31    30 1
    35    14    30 1
    36     2    32 1
    37     6    33 1
    38     9    34 1
    39    10    35 1
    40    11    36 1
    41    11    37 1
    42    11    38 1
    43    53    39 1
    44    53    40 1
    45    53    41 1
    46    13    42 1
    47    13    43 1
    48    14    44 1
    49    14    45 1
    50    17    46 1
    51    22    47 1
    52    28    48 1
    53    30    49 1
    54    30    50 1
    55    31    51 1
    56    31    52 1
@<TRIPOS>SUBSTRUCTURE
     1 CW5         1 TEMP              0 ****  ****    0 ROOT
