@<TRIPOS>MOLECULE
CW5
   53    56     1     0     0
SMALL
bcc


@<TRIPOS>ATOM
      1 C1           0.0000     0.0000     0.0000 ca         1 CW5      -0.171700
      2 C2           1.3930     0.0000     0.0000 ca         1 CW5      -0.092000
      3 C3           2.0520     0.0000     1.2170 ca         1 CW5      -0.092900
      4 C12         -0.4940    -1.5080    -4.4790 cc         1 CW5      -0.209700
      5 C13         -0.3060    -0.9450    -5.7050 cd         1 CW5      -0.204600
      6 C15         -0.2230    -2.8760    -4.3010 cc         1 CW5       0.428200
      7 C16          0.3830    -3.0610    -6.5190 cd         1 CW5       0.176500
      8 C19          0.8130    -2.5650    -8.6620 cc         1 CW5       0.419600
      9 C20          0.8160    -3.5900    -7.7290 cc         1 CW5      -0.338600
     10 C22         -0.5810     0.5200    -5.9240 c3         1 CW5       0.237400
     11 C24         -1.7480     0.6790    -6.9020 c3         1 CW5      -0.006100
     12 C26         -0.2220    -0.6560    -2.2710 c          1 CW5       0.552100
     13 C29          1.8380    -0.0040     6.2080 c3         1 CW5       0.048500
     14 C30          0.7240    -0.6170     7.0920 c3         1 CW5      -0.036900
     15 C4           1.3040    -0.0010     2.3960 ca         1 CW5       0.302800
     16 N5          -0.0250    -0.0010     2.3550 nb         1 CW5      -0.542000
     17 C6          -0.6800    -0.0000     1.2170 ca         1 CW5       0.353200
     18 Cl7          3.7870    -0.0010     1.2770 cl         1 CW5       0.072600
     19 C8           1.9960    -0.0030     3.7020 c          1 CW5       0.513600
     20 O9           3.2100    -0.0030     3.7460 o          1 CW5      -0.652100
     21 N10          1.2800    -0.0030     4.8430 n          1 CW5      -0.132800
     22 N11         -0.7060     0.0070    -1.2020 ns         1 CW5      -0.036100
     23 N14          0.2010    -3.6030    -5.3080 nd         1 CW5      -0.515000
     24 N17          0.1370    -1.7290    -6.7330 na         1 CW5       0.588200
     25 N18          0.4140    -1.4560    -8.0770 nd         1 CW5      -0.714100
     26 Cl2          1.2680    -2.7180   -10.3300 cl         1 CW5       0.016700
     27 O23          0.5820     1.1470    -6.4650 os         1 CW5      -0.379600
     28 N25         -0.9470    -0.7280    -3.4040 ns         1 CW5      -0.059100
     29 O27          0.8700    -1.1880    -2.2140 o          1 CW5      -0.669100
     30 C31         -0.5540    -0.0320     6.4330 c3         1 CW5      -0.036900
     31 C32         -0.1880    -0.0030     4.9350 c3         1 CW5       0.048500
     32 H1           1.9470     0.0010    -0.9310 ha         1 CW5       0.165000
     33 H2          -0.3700    -3.3330    -3.3290 h4         1 CW5       0.003100
     34 H3           1.0970    -4.6210    -7.9120 ha         1 CW5       0.155000
     35 H4          -0.8360     0.9850    -4.9790 h1         1 CW5       0.011700
     36 H5          -2.5530     1.2190    -6.4190 hc         1 CW5       0.020033
     37 H6          -1.4160     1.2290    -7.7740 hc         1 CW5       0.020033
     38 H7          -2.1000    -0.3000    -7.2060 hc         1 CW5       0.020033
     39 H8           2.0950     2.4360    -5.9180 h1         1 CW5      -0.006633
     40 H9           2.1080     0.8630    -5.1090 h1         1 CW5      -0.006633
     41 H10          0.9070     2.0800    -4.6560 h1         1 CW5      -0.006633
     42 H11          2.7300    -0.6180     6.2480 h1         1 CW5       0.027950
     43 H12          2.0550     1.0090     6.5250 h1         1 CW5       0.027950
     44 H13          0.7310    -1.6980     7.0270 hc         1 CW5       0.023200
     45 H14          0.8170    -0.2820     8.1180 hc         1 CW5       0.023200
     46 H15         -1.7630    -0.0000     1.2240 h4         1 CW5      -0.018900
     47 H16         -1.5780     0.4930    -1.2680 hn         1 CW5       0.164500
     48 H17         -1.8120    -0.2300    -3.4770 hn         1 CW5       0.168500
     49 H18         -0.7470     0.9700     6.7980 hc         1 CW5       0.023200
     50 H19         -1.4040    -0.6810     6.6060 hc         1 CW5       0.023200
     51 H20         -0.5850     0.8950     4.4770 h1         1 CW5       0.027950
     52 H21         -0.5870    -0.8820     4.4430 h1         1 CW5       0.027950
     53 C28          1.4770     1.6630    -5.4770 c3         1 CW5       0.239700
@<TRIPOS>BOND
     1     1     2 ar  
     2     1    17 ar  
     3     1    22 1   
     4     2     3 ar  
     5     2    32 1   
     6     3    15 ar  
     7     3    18 1   
     8     4     5 2   
     9     4     6 1   
    10     4    28 1   
    11     5    10 1   
    12     5    24 1   
    13     6    23 2   
    14     6    33 1   
    15     7     9 2   
    16     7    23 1   
    17     7    24 1   
    18     8     9 1   
    19     8    25 2   
    20     8    26 1   
    21     9    34 1   
    22    10    11 1   
    23    10    27 1   
    24    10    35 1   
    25    11    36 1   
    26    11    37 1   
    27    11    38 1   
    28    12    22 1   
    29    12    28 1   
    30    12    29 2   
    31    13    14 1   
    32    13    21 1   
    33    13    42 1   
    34    13    43 1   
    35    14    30 1   
    36    14    44 1   
    37    14    45 1   
    38    15    16 ar  
    39    15    19 1   
    40    16    17 ar  
    41    17    46 1   
    42    19    20 2   
    43    19    21 1   
    44    21    31 1   
    45    22    47 1   
    46    24    25 1   
    47    27    53 1   
    48    28    48 1   
    49    30    31 1   
    50    30    49 1   
    51    30    50 1   
    52    31    51 1   
    53    31    52 1   
    54    39    53 1   
    55    40    53 1   
    56    41    53 1   
@<TRIPOS>SUBSTRUCTURE
     1 CW5         1 TEMP              0 ****  ****    0 ROOT
