@<TRIPOS>MOLECULE
molecule
   35    37     1     0     0
SMALL
bcc


@<TRIPOS>ATOM
      1 C1           0.0000     0.0000     0.0000 ca         1 CWA      -0.098000
      2 C2           1.3830     0.0000     0.0000 ca         1 CWA      -0.129000
      3 C3           2.0750     0.0000     1.1940 ca         1 CWA      -0.064000
      4 C15         -0.4110    -2.4480     4.1990 cc         1 CWA       0.439400
      5 C17         -2.4450    -3.1380     4.4160 cd         1 CWA       0.368200
      6 C18         -2.5080    -1.8230     4.1300 cc         1 CWA      -0.339900
      7 C19         -3.7580    -0.9950     3.9860 c3         1 CWA       0.491200
      8 C10         -0.7920    -0.0160     3.6900 c3         1 CWA       0.063300
      9 C4          -0.7020    -0.0030     1.1920 ca         1 CWA      -0.112000
     10 C5          -0.0240    -0.0090     2.3950 ca         1 CWA      -0.080300
     11 C6           1.3720     0.0000     2.3980 ca         1 CWA      -0.172600
     12 C7           2.0970     0.0100     3.6890 c          1 CWA       0.742200
     13 C9           0.0840     0.5090     4.8310 c3         1 CWA       0.152800
     14 F20         -3.5270     0.0440     3.0770 f          1 CWA      -0.238300
     15 F21         -4.8010    -1.8010     3.5170 f          1 CWA      -0.238300
     16 N14         -1.2180    -1.3850     3.9960 na         1 CWA      -0.165900
     17 N16         -1.1520    -3.4940     4.4460 nd         1 CWA      -0.699000
     18 O11          3.2970     0.1890     3.7410 o          1 CWA      -0.552500
     19 O8           1.3620    -0.1910     4.8130 os         1 CWA      -0.419900
     20 H1          -0.5380     0.0000    -0.9400 ha         1 CWA       0.140000
     21 H2           1.9240     0.0020    -0.9390 ha         1 CWA       0.142000
     22 H3           3.1580    -0.0000     1.1960 ha         1 CWA       0.159000
     23 H4          -0.5910    -0.7950     6.4000 hc         1 CWA       0.057700
     24 H5          -1.6470     0.5930     6.1010 hc         1 CWA       0.057700
     25 H6          -0.1100     0.8170     6.9480 hc         1 CWA       0.057700
     26 H7          -0.5810     2.5510     4.9100 hc         1 CWA       0.057700
     27 H8           1.1340     2.3290     5.2830 hc         1 CWA       0.057700
     28 H9           0.5700     2.2100     3.6110 hc         1 CWA       0.057700
     29 H10          0.6720    -2.4360     4.1610 h5         1 CWA       0.083100
     30 H11         -3.2900    -3.7950     4.5850 h4         1 CWA       0.051100
     31 H12         -4.0280    -0.5780     4.9490 h2         1 CWA       0.075700
     32 H13         -1.6630     0.6200     3.5890 h1         1 CWA       0.108700
     33 H14         -1.7850    -0.0030     1.1820 ha         1 CWA       0.150000
     34 C12         -0.6170     0.2630     6.1680 c3         1 CWA      -0.102600
     35 C13          0.3190     2.0090     4.6450 c3         1 CWA      -0.102600
@<TRIPOS>BOND
     1     2     1 ar
     2     2     3 ar
     3     1     9 ar
     4     3    11 ar
     5     9    10 ar
     6    35    13 1
     7    11    10 ar
     8    11    12 1
     9    10     8 1
    10    12    18 2
    11    12    19 1
    12     8    13 1
    13     8    16 1
    14    13    19 1
    15    13    34 1
    16    14     7 1
    17    16     4 1
    18    16     6 1
    19     4    17 2
    20     7     6 1
    21     7    15 1
    22     6     5 2
    23    17     5 1
    24     1    20 1
    25     2    21 1
    26     3    22 1
    27    34    23 1
    28    34    24 1
    29    34    25 1
    30    35    26 1
    31    35    27 1
    32    35    28 1
    33     4    29 1
    34     5    30 1
    35     7    31 1
    36     8    32 1
    37     9    33 1
@<TRIPOS>SUBSTRUCTURE
     1 CWA         1 TEMP              0 ****  ****    0 ROOT
