@<TRIPOS>MOLECULE
CWB
   47    50     1     0     0
SMALL
bcc


@<TRIPOS>ATOM
      1 O13          0.0000     0.0000     0.0000 o          1 CWB      -0.660100
      2 C12          1.2170     0.0000     0.0000 c          1 CWB       0.550800
      3 C14          1.9540     0.0000     1.2760 cc         1 CWB       0.269900
      4 C23          1.3750     0.0020     2.6270 ca         1 CWB      -0.165900
      5 C22          0.0890     0.0030     3.1570 ca         1 CWB      -0.020000
      6 C21         -0.0810     0.0040     4.5140 ca         1 CWB      -0.128000
      7 C20          1.0190     0.0050     5.3620 ca         1 CWB      -0.075000
      8 C19          2.2910     0.0030     4.8620 ca         1 CWB      -0.098000
      9 C18          2.4930     0.0020     3.4850 ca         1 CWB      -0.256200
     10 N16          3.5950     0.0010     2.6720 na         1 CWB       0.576900
     11 C17          4.9780    -0.0000     3.1550 c3         1 CWB       0.003600
     12 N15          3.2600    -0.0060     1.4330 nd         1 CWB      -0.616100
     13 N11          1.8900    -0.0080    -1.1680 ns         1 CWB      -0.200900
     14 C09          1.1610    -0.0140    -2.4310 c3         1 CWB       0.005700
     15 C10          1.2260    -1.3730    -3.1160 c3         1 CWB      -0.024900
     16 C03          2.5450    -1.5760    -3.8670 c3         1 CWB       0.145500
     17 C08          1.5980     1.1250    -3.3450 c3         1 CWB      -0.024900
     18 C07          2.8980     0.8010    -4.0840 c3         1 CWB       0.145500
     19 N02          2.7430    -0.4650    -4.7860 n3         1 CWB      -0.538600
     20 C01          3.6710    -0.7020    -5.8730 c3         1 CWB       0.196100
     21 C06          4.0730     0.7770    -3.1170 c3         1 CWB      -0.070900
     22 C05          4.7150    -0.5960    -2.9990 c3         1 CWB      -0.023400
     23 C04          3.7010    -1.7230    -2.8900 c3         1 CWB      -0.070900
     24 H11          2.8910     0.0200    -1.1680 hn         1 CWB       0.206500
     25 H22         -0.7720     0.0020     2.5000 ha         1 CWB       0.130000
     26 H21         -1.0810     0.0050     4.9310 ha         1 CWB       0.107000
     27 H20          0.8670     0.0050     6.4350 ha         1 CWB       0.102000
     28 H19          3.1390     0.0030     5.5350 ha         1 CWB       0.101000
     29 H171         5.6560     0.0240     2.3090 h1         1 CWB       0.024367
     30 H172         5.1580    -0.8960     3.7360 h1         1 CWB       0.024367
     31 H173         5.1450     0.8720     3.7750 h1         1 CWB       0.024367
     32 H09          0.1190     0.1620    -2.1950 h1         1 CWB       0.064700
     33 H101         0.4070    -1.4490    -3.8210 hc         1 CWB       0.027450
     34 H102         1.1260    -2.1490    -2.3670 hc         1 CWB       0.027450
     35 H081         0.8170     1.3080    -4.0730 hc         1 CWB       0.027450
     36 H082         1.7460     2.0160    -2.7480 hc         1 CWB       0.027450
     37 H03          2.4710    -2.4880    -4.4470 h1         1 CWB       0.029700
     38 H041         3.3040    -1.7370    -1.8820 hc         1 CWB       0.023950
     39 H042         4.2030    -2.6630    -3.0850 hc         1 CWB       0.023950
     40 H07          3.0760     1.5780    -4.8170 h1         1 CWB       0.029700
     41 H061         3.7240     1.0830    -2.1380 hc         1 CWB       0.023950
     42 H062         4.8210     1.4810    -3.4620 hc         1 CWB       0.023950
     43 H011         3.1280    -0.7380    -6.8090 h1         1 CWB       0.000367
     44 H012         4.3980     0.1000    -5.9080 h1         1 CWB       0.000367
     45 H013         4.1800    -1.6450    -5.7140 h1         1 CWB       0.000367
     46 H051         5.3300    -0.7670    -3.8750 hc         1 CWB       0.015700
     47 H052         5.3440    -0.6100    -2.1180 hc         1 CWB       0.015700
@<TRIPOS>BOND
     1     1     2 2   
     2     2     3 1   
     3     2    13 1   
     4     3     4 1   
     5     3    12 2   
     6     4     5 ar  
     7     4     9 ar  
     8     5     6 ar  
     9     5    25 1   
    10     6     7 ar  
    11     6    26 1   
    12     7     8 ar  
    13     7    27 1   
    14     8     9 ar  
    15     8    28 1   
    16     9    10 1   
    17    10    11 1   
    18    10    12 1   
    19    11    29 1   
    20    11    30 1   
    21    11    31 1   
    22    13    14 1   
    23    13    24 1   
    24    14    15 1   
    25    14    17 1   
    26    14    32 1   
    27    15    16 1   
    28    15    33 1   
    29    15    34 1   
    30    16    19 1   
    31    16    23 1   
    32    16    37 1   
    33    17    18 1   
    34    17    35 1   
    35    17    36 1   
    36    18    19 1   
    37    18    21 1   
    38    18    40 1   
    39    19    20 1   
    40    20    43 1   
    41    20    44 1   
    42    20    45 1   
    43    21    22 1   
    44    21    41 1   
    45    21    42 1   
    46    22    23 1   
    47    22    46 1   
    48    22    47 1   
    49    23    38 1   
    50    23    39 1   
@<TRIPOS>SUBSTRUCTURE
     1 CWB         1 TEMP              0 ****  ****    0 ROOT
