@<TRIPOS>MOLECULE
molecule
   46    48     1     0     0
SMALL
bcc


@<TRIPOS>ATOM
      1 C1           0.0000     0.0000     0.0000 c3         1 CWC       0.150100
      2 N2           1.4690     0.0000     0.0000 n3         1 CWC      -0.728600
      3 C3           1.9950     0.0000     1.3720 c3         1 CWC       0.150100
      4 C4           1.9950    -1.1380    -0.7650 c3         1 CWC       0.159800
      5 C5           1.6310    -0.9710    -2.2430 c3         1 CWC      -0.067400
      6 C6           2.1790    -2.1560    -3.0400 c3         1 CWC      -0.159400
      7 C7           1.8200    -1.9910    -4.4950 c          1 CWC       0.656100
      8 O8           1.1880    -1.0210    -4.8570 o          1 CWC      -0.585100
      9 N9           2.2010    -2.9210    -5.3920 ns         1 CWC      -0.478100
     10 C10          1.7750    -2.8270    -6.7220 ca         1 CWC      -0.067700
     11 C11          0.5300    -2.2890    -7.0260 ca         1 CWC      -0.088000
     12 C12          0.1510    -2.2150    -8.3690 cp         1 CWC      -0.136300
     13 C13          1.0300    -2.6820    -9.3450 ca         1 CWC       0.409200
     14 N14          2.2020    -3.1840    -9.0120 nb         1 CWC      -0.674000
     15 C15          2.5940    -3.2640    -7.7570 ca         1 CWC       0.383200
     16 C16         -1.1660    -1.6510    -8.7490 cp         1 CWC       0.008000
     17 C17         -2.3250    -2.0950    -8.1250 ca         1 CWC      -0.141000
     18 C18         -3.5540    -1.5660    -8.4830 ca         1 CWC      -0.110000
     19 C19         -3.6500    -0.5960    -9.4570 ca         1 CWC      -0.140000
     20 C20         -2.5060    -0.1330   -10.0980 ca         1 CWC      -0.037200
     21 C21         -1.2520    -0.6580    -9.7410 ca         1 CWC      -0.089800
     22 C22         -0.2710     0.0290   -10.5790 cc         1 CWC      -0.198200
     23 C23         -0.9490     0.8920   -11.3520 cd         1 CWC      -0.100100
     24 N24         -2.2880     0.8040   -11.0840 na         1 CWC      -0.185400
     25 H11C        -0.3610    -1.0170    -0.0960 h1         1 CWC       0.032533
     26 H12C        -0.3610     0.5920    -0.8320 h1         1 CWC       0.032533
     27 H13C        -0.3610     0.4250     0.9290 h1         1 CWC       0.032533
     28 H31C         1.5890     0.8450     1.9140 h1         1 CWC       0.032533
     29 H32C         3.0760     0.0740     1.3440 h1         1 CWC       0.032533
     30 H33C         1.7090    -0.9190     1.8680 h1         1 CWC       0.032533
     31 H41C         3.0730    -1.1760    -0.6620 h1         1 CWC       0.030200
     32 H42C         1.5630    -2.0570    -0.3880 h1         1 CWC       0.030200
     33 H51C         0.5530    -0.9340    -2.3470 hc         1 CWC       0.067700
     34 H52C         2.0620    -0.0520    -2.6190 hc         1 CWC       0.067700
     35 H61C         1.7470    -3.0750    -2.6640 hc         1 CWC       0.060200
     36 H62C         3.2560    -2.1940    -2.9360 hc         1 CWC       0.060200
     37 H9           2.7990    -3.6730    -5.1110 hn         1 CWC       0.324500
     38 H11         -0.1290    -1.9360    -6.2420 ha         1 CWC       0.172000
     39 H15          3.5650    -3.6840    -7.5270 h4         1 CWC       0.018100
     40 H13          0.7460    -2.6320   -10.3900 h4         1 CWC       0.033100
     41 H17         -2.2670    -2.8570    -7.3570 ha         1 CWC       0.133000
     42 H18         -4.4520    -1.9200    -7.9900 ha         1 CWC       0.131000
     43 H19         -4.6200    -0.1930    -9.7240 ha         1 CWC       0.125000
     44 H24         -3.0010     1.3450   -11.5310 hn         1 CWC       0.295700
     45 H22          0.8020    -0.1220   -10.5710 ha         1 CWC       0.160000
     46 H23         -0.5030     1.5600   -12.0800 h4         1 CWC       0.166000
@<TRIPOS>BOND
     1     1     2 1
     2     2     3 1
     3     2     4 1
     4     4     5 1
     5     5     6 1
     6     6     7 1
     7     7     8 2
     8     7     9 1
     9     9    10 1
    10    10    11 ar
    11    10    15 ar
    12    11    12 ar
    13    12    13 ar
    14    12    16 1
    15    13    14 ar
    16    14    15 ar
    17    16    17 ar
    18    16    21 ar
    19    17    18 ar
    20    18    19 ar
    21    19    20 ar
    22    20    21 ar
    23    20    24 1
    24    21    22 1
    25    22    23 2
    26    23    24 1
    27     1    25 1
    28     1    26 1
    29     1    27 1
    30     3    28 1
    31     3    29 1
    32     3    30 1
    33     4    31 1
    34     4    32 1
    35     5    33 1
    36     5    34 1
    37     6    35 1
    38     6    36 1
    39     9    37 1
    40    11    38 1
    41    15    39 1
    42    13    40 1
    43    17    41 1
    44    18    42 1
    45    19    43 1
    46    24    44 1
    47    22    45 1
    48    23    46 1
@<TRIPOS>SUBSTRUCTURE
     1 CWC         1 TEMP              0 ****  ****    0 ROOT
