@<TRIPOS>MOLECULE
molecule
   32    34     1     0     0
SMALL
bcc


@<TRIPOS>ATOM
      1 C1           0.0000     0.0000     0.0000 ca         1 CWE      -0.225000
      2 C2           1.3890     0.0000     0.0000 ca         1 CWE       0.197100
      3 C3           2.0980     0.0000     1.1960 ca         1 CWE      -0.286000
      4 C4           1.4210     0.0020     2.4020 ca         1 CWE       0.228100
      5 C5           0.0170     0.0070     2.4080 ca         1 CWE      -0.295600
      6 C6          -0.6970     0.0060     1.1950 ca         1 CWE       0.222100
      7 C7          -0.7260     0.0240     3.6730 c          1 CWE       0.579700
      8 C8          -2.2150    -0.2560     3.5890 c3         1 CWE      -0.208400
      9 C9          -2.7440     0.4680     2.3420 c3         1 CWE       0.207400
     10 O1          -2.0510    -0.0040     1.1890 os         1 CWE      -0.319900
     11 O2          -0.1770     0.2490     4.7320 o          1 CWE      -0.496100
     12 C10         -4.2180     0.1960     2.1900 ca         1 CWE      -0.104300
     13 C11         -5.1400     1.1390     2.6040 ca         1 CWE      -0.093000
     14 C12         -6.4930     0.8930     2.4650 ca         1 CWE      -0.154500
     15 C13         -6.9260    -0.3040     1.9110 ca         1 CWE       0.115100
     16 C14         -5.9970    -1.2490     1.4960 ca         1 CWE      -0.154500
     17 C15         -4.6470    -0.9950     1.6320 ca         1 CWE      -0.093000
     18 O3          -8.2550    -0.5510     1.7790 oh         1 CWE      -0.521100
     19 O4           2.0600     0.0000    -1.1780 oh         1 CWE      -0.519100
     20 O5           2.1100    -0.0010     3.5710 oh         1 CWE      -0.473100
     21 H11         -0.5400    -0.0000    -0.9390 ha         1 CWE       0.161000
     22 H31          3.1810    -0.0000     1.1830 ha         1 CWE       0.149000
     23 H82         -2.7110     0.1250     4.4740 hc         1 CWE       0.085700
     24 H81         -2.3840    -1.3220     3.4950 hc         1 CWE       0.085700
     25 H9          -2.5780     1.5330     2.4480 h1         1 CWE       0.061700
     26 H111        -4.8020     2.0730     3.0370 ha         1 CWE       0.141000
     27 H121        -7.2150     1.6330     2.7900 ha         1 CWE       0.144500
     28 H141        -6.3320    -2.1830     1.0610 ha         1 CWE       0.144500
     29 H151        -3.9230    -1.7330     1.3090 ha         1 CWE       0.141000
     30 HO3         -8.5800    -0.9490     2.5690 ho         1 CWE       0.422000
     31 H41          2.2940     0.8850    -1.4070 ho         1 CWE       0.431000
     32 H51          2.8430    -0.5900     3.5020 ho         1 CWE       0.426000
@<TRIPOS>BOND
     1    18    15 1
     2    15    16 ar
     3    15    14 ar
     4    16    17 ar
     5    14    13 ar
     6    17    12 ar
     7    13    12 ar
     8    12     9 1
     9     8     9 1
    10     8     7 1
    11     9    10 1
    12    10     6 1
    13     7    11 2
    14     7     5 1
    15     6     5 ar
    16     6     1 ar
    17     5     4 ar
    18     1     2 ar
    19     4    20 1
    20     4     3 ar
    21     2     3 ar
    22     2    19 1
    23     1    21 1
    24     3    22 1
    25     8    23 1
    26     8    24 1
    27     9    25 1
    28    13    26 1
    29    14    27 1
    30    16    28 1
    31    17    29 1
    32    18    30 1
    33    19    31 1
    34    20    32 1
@<TRIPOS>SUBSTRUCTURE
     1 CWE         1 TEMP              0 ****  ****    0 ROOT
