@<TRIPOS>MOLECULE
molecule
   30    31     1     0     0
SMALL
bcc


@<TRIPOS>ATOM
      1 C1           0.0000     0.0000     0.0000 cp         1 CWG       0.372800
      2 C2          -0.7450     0.0010    -1.2830 cp         1 CWG      -0.135500
      3 C3           1.3990     0.0000     0.0000 ca         1 CWG      -0.128600
      4 C11         -0.9430     0.6990    -3.5710 ca         1 CWG      -0.127500
      5 C12          1.2670    -0.0010     2.3770 ca         1 CWG       0.591600
      6 C14         -2.1400     0.0110    -3.6740 ca         1 CWG       0.036400
      7 C17          0.9990    -0.0010     4.7380 c3         1 CWG       0.133700
      8 C10         -2.6380    -0.6870    -2.5870 ca         1 CWG      -0.127500
      9 C5          -1.9490    -0.6910    -1.3930 ca         1 CWG      -0.099500
     10 C6          -0.2440     0.6970    -2.3810 ca         1 CWG      -0.099500
     11 C7           2.0470     0.0000     1.2220 ca         1 CWG      -0.178600
     12 C8           2.1750    -0.0000    -1.2920 c3         1 CWG      -0.054800
     13 N4          -0.6580     0.0060     1.1510 nb         1 CWG      -0.277000
     14 N9          -0.0540     0.0110     2.2830 nb         1 CWG      -0.396000
     15 O15          1.8610    -0.0000     3.5980 os         1 CWG      -0.437100
     16 Cl1         -3.0150     0.0170    -5.1740 cl         1 CWG      -0.108400
     17 H1          -0.5560     1.2420    -4.4250 ha         1 CWG       0.146500
     18 H2           3.9300    -0.9740     1.0170 hc         1 CWG       0.053700
     19 H3           3.9500     0.7520     0.6310 hc         1 CWG       0.053700
     20 H4           3.8600     0.2230     2.3170 hc         1 CWG       0.053700
     21 H5           0.3770     0.8860     4.7210 h1         1 CWG       0.050367
     22 H6           0.3720    -0.8830     4.7160 h1         1 CWG       0.050367
     23 H7           1.5970    -0.0050     5.6420 h1         1 CWG       0.050367
     24 H8          -3.5750    -1.2250    -2.6730 ha         1 CWG       0.146500
     25 H9          -2.3410    -1.2370    -0.5430 ha         1 CWG       0.150500
     26 H10          0.6920     1.2360    -2.3010 ha         1 CWG       0.150500
     27 H11          3.1330    -0.4810    -1.1380 hc         1 CWG       0.056367
     28 H12          2.3320     1.0210    -1.6190 hc         1 CWG       0.056367
     29 H13          1.6170    -0.5400    -2.0480 hc         1 CWG       0.056367
     30 C13          3.5530     0.0000     1.3030 c3         1 CWG      -0.041800
@<TRIPOS>BOND
     1    16     6 1
     2     4     6 ar
     3     4    10 ar
     4     6     8 ar
     5    10     2 ar
     6     8     9 ar
     7     2     9 ar
     8     2     1 1
     9    13     1 ar
    10    13    14 ar
    11     1     3 ar
    12    14     5 ar
    13     3    12 1
    14     3    11 ar
    15     5    11 ar
    16     5    15 1
    17    11    30 1
    18    15     7 1
    19     4    17 1
    20    30    18 1
    21    30    19 1
    22    30    20 1
    23     7    21 1
    24     7    22 1
    25     7    23 1
    26     8    24 1
    27     9    25 1
    28    10    26 1
    29    12    27 1
    30    12    28 1
    31    12    29 1
@<TRIPOS>SUBSTRUCTURE
     1 CWG         1 TEMP              0 ****  ****    0 ROOT
