@<TRIPOS>MOLECULE
molecule
   23    24     1     0     0
SMALL
bcc


@<TRIPOS>ATOM
      1 C1           0.0000     0.0000     0.0000 ca         1 CWJ      -0.069200
      2 C2           1.4070     0.0000     0.0000 ca         1 CWJ      -0.065800
      3 C12          1.2960     0.0020     4.7750 c3         1 CWJ       0.130700
      4 C10          0.6370    -0.0010    -3.6470 c3         1 CWJ      -0.032900
      5 C4          -0.6850     0.0010     1.2100 ca         1 CWJ      -0.108000
      6 C5           2.1050     0.0000     1.2100 ca         1 CWJ      -0.118000
      7 C6           1.8120    -0.0000    -1.4080 cc         1 CWJ      -0.205200
      8 C7           0.6870    -0.0000    -2.1410 cd         1 CWJ      -0.048300
      9 C8           0.0130     0.0010     2.3960 ca         1 CWJ      -0.193000
     10 C9           1.4050     0.0010     2.4000 ca         1 CWJ       0.110100
     11 N3          -0.4050    -0.0060    -1.3180 na         1 CWJ      -0.183400
     12 O11          2.0800     0.0010     3.5820 os         1 CWJ      -0.331900
     13 H1           0.6700    -0.8820     4.7980 h1         1 CWJ       0.038033
     14 H2           1.9510     0.0020     5.6380 h1         1 CWJ       0.038033
     15 H3           0.6710     0.8870     4.7960 h1         1 CWJ       0.038033
     16 H4          -0.2590     0.5100    -3.9790 hc         1 CWJ       0.049367
     17 H5           1.5090     0.5090    -4.0380 hc         1 CWJ       0.049367
     18 H6           0.6240    -1.0230    -4.0080 hc         1 CWJ       0.049367
     19 H7          -1.7680     0.0010     1.2190 ha         1 CWJ       0.125000
     20 H8           3.1880    -0.0000     1.2140 ha         1 CWJ       0.145000
     21 H9           2.8160    -0.1660    -1.7820 ha         1 CWJ       0.155000
     22 H10         -0.5260     0.0020     3.3360 ha         1 CWJ       0.134000
     23 H11         -1.3570    -0.0130    -1.6270 hn         1 CWJ       0.292700
@<TRIPOS>BOND
     1     4     8 1
     2     7     8 2
     3     7     2 1
     4     8    11 1
     5     2     6 ar
     6     2     1 ar
     7     6    10 ar
     8    11     1 1
     9     3    12 1
    10     1     5 ar
    11    10    12 1
    12    10     9 ar
    13     5     9 ar
    14     3    13 1
    15     3    14 1
    16     3    15 1
    17     4    16 1
    18     4    17 1
    19     4    18 1
    20     5    19 1
    21     6    20 1
    22     7    21 1
    23     9    22 1
    24    11    23 1
@<TRIPOS>SUBSTRUCTURE
     1 CWJ         1 TEMP              0 ****  ****    0 ROOT
