@<TRIPOS>MOLECULE
CWK
   45    47     1     0     0
SMALL
bcc


@<TRIPOS>ATOM
      1 Cl           0.0000     0.0000     0.0000 cl         1 CWK       0.000600
      2 C1           3.8510     0.0280    -2.0860 c3         1 CWK       0.381900
      3 O1           2.6240     0.0150    -1.3560 os         1 CWK      -0.323900
      4 C2           3.5630     0.2940    -3.5660 c3         1 CWK       0.180100
      5 O2           4.7940     0.3610    -4.2880 oh         1 CWK      -0.607800
      6 C3           2.7030    -0.8450    -4.1230 c3         1 CWK       0.145100
      7 O3           2.4900    -0.6440    -5.5210 oh         1 CWK      -0.565800
      8 C4           3.4330    -2.1740    -3.9020 c3         1 CWK       0.175100
      9 O4           2.6080    -3.2510    -4.3520 oh         1 CWK      -0.563800
     10 C5           3.7270    -2.3450    -2.4090 c3         1 CWK       0.148100
     11 O5           4.5020    -1.2360    -1.9480 os         1 CWK      -0.434600
     12 C6           4.5080    -3.6410    -2.1870 c3         1 CWK      -0.297600
     13 O6           4.6810    -3.8600    -0.7860 oh         1 CWK      -0.360800
     14 CAA          2.7130     0.0000     0.0000 ca         1 CWK       0.194100
     15 CAB          3.9580     0.0000     0.6120 ca         1 CWK      -0.214000
     16 CAC          4.0520    -0.0160     1.9890 ca         1 CWK      -0.074000
     17 CAD          2.8940    -0.0300     2.7650 cp         1 CWK      -0.054000
     18 CAE          1.6430    -0.0280     2.1470 ca         1 CWK      -0.053000
     19 CAF          1.5550    -0.0080     0.7710 ca         1 CWK      -0.091600
     20 CAG          2.9920    -0.0460     4.2440 cp         1 CWK       0.013000
     21 CAH          1.8310    -0.0600     5.0190 ca         1 CWK      -0.122500
     22 CAI          1.9200    -0.0760     6.3930 ca         1 CWK      -0.082000
     23 CAJ          3.1740    -0.0770     7.0110 ca         1 CWK       0.061000
     24 CAK          4.3350    -0.0630     6.2330 ca         1 CWK      -0.082000
     25 CAL          4.2430    -0.0540     4.8600 ca         1 CWK      -0.122500
     26 CAN          3.2690    -0.0930     8.4390 cg         1 CWK       0.229800
     27 NAO          3.3430    -0.1260     9.5720 n1         1 CWK      -0.381800
     28 H1           4.4970     0.8080    -1.7000 h2         1 CWK       0.039700
     29 H5           2.7930    -2.3830    -1.8620 h1         1 CWK       0.036700
     30 H2           3.0280     1.2310    -3.6660 h1         1 CWK       0.008700
     31 HO2          4.9880     0.9960    -4.9570 ho         1 CWK       0.418000
     32 H3           1.7520    -0.8660    -3.6050 h1         1 CWK       0.028700
     33 HO3          1.5820    -0.4040    -5.5960 ho         1 CWK       0.387000
     34 H4           4.3650    -2.1700    -4.4540 h1         1 CWK       0.033700
     35 HO4          3.2060    -3.8210    -4.8070 ho         1 CWK       0.397000
     36 H61          4.3670    -3.9400    -1.1550 h1         1 CWK       0.138200
     37 H62          5.5710    -3.6680    -2.3940 h1         1 CWK       0.138200
     38 HO6          5.4200    -4.3400    -0.4510 ho         1 CWK       0.422000
     39 HAB          4.9870    -0.1490     0.3080 ha         1 CWK       0.144000
     40 HAC          5.0810    -0.1940     2.2750 ha         1 CWK       0.112000
     41 HAE          0.6740     0.0680     2.6230 ha         1 CWK       0.123000
     42 HAH          0.8340     0.1850     4.6740 ha         1 CWK       0.116000
     43 HAI          0.9410    -0.0370     6.8530 ha         1 CWK       0.122000
     44 HAK          5.3840     0.1810     6.3560 ha         1 CWK       0.122000
     45 HAL          5.1920    -0.1730     4.3510 ha         1 CWK       0.116000
@<TRIPOS>BOND
     1     1    19 1   
     2     2     3 1   
     3     2     4 1   
     4     2    11 1   
     5     2    28 1   
     6     3    14 1   
     7     4     5 1   
     8     4     6 1   
     9     4    30 1   
    10     5    31 1   
    11     6     7 1   
    12     6     8 1   
    13     6    32 1   
    14     7    33 1   
    15     8     9 1   
    16     8    10 1   
    17     8    34 1   
    18     9    35 1   
    19    10    11 1   
    20    10    12 1   
    21    10    29 1   
    22    12    13 1   
    23    12    36 1   
    24    12    37 1   
    25    13    38 1   
    26    14    15 ar  
    27    14    19 ar  
    28    15    16 ar  
    29    15    39 1   
    30    16    17 ar  
    31    16    40 1   
    32    17    18 ar  
    33    17    20 1   
    34    18    19 ar  
    35    18    41 1   
    36    20    21 ar  
    37    20    25 ar  
    38    21    22 ar  
    39    21    42 1   
    40    22    23 ar  
    41    22    43 1   
    42    23    24 ar  
    43    23    26 1   
    44    24    25 ar  
    45    24    44 1   
    46    25    45 1   
    47    26    27 3   
@<TRIPOS>SUBSTRUCTURE
     1 CWK         1 TEMP              0 ****  ****    0 ROOT
