@<TRIPOS>MOLECULE
molecule
   19    20     1     0     0
SMALL
bcc


@<TRIPOS>ATOM
      1 C1           0.0000     0.0000     0.0000 ca         1 CWM      -0.155000
      2 C2           1.3870     0.0000     0.0000 ca         1 CWM      -0.132000
      3 C3           2.0870     0.0000     1.1850 ca         1 CWM      -0.082000
      4 C4          -0.7000     0.0020     1.1920 ca         1 CWM       0.106100
      5 C6          -0.0060    -0.0030     2.4000 ca         1 CWM      -0.110200
      6 C7           1.3970     0.0010     2.4010 ca         1 CWM       0.107400
      7 C9           0.7470    -0.0110     4.4760 cc         1 CWM       0.423800
      8 N10         -0.3890    -0.0040     3.7270 na         1 CWM      -0.256300
      9 N8           1.7920     0.0010     3.6990 nd         1 CWM      -0.605100
     10 O5          -2.0600     0.0080     1.1860 oh         1 CWM      -0.525100
     11 H1          -0.5380    -0.0000    -0.9400 ha         1 CWM       0.140000
     12 H2           1.9240    -0.0010    -0.9410 ha         1 CWM       0.136000
     13 H3           3.1700     0.0000     1.1760 ha         1 CWM       0.144000
     14 H4           0.2270    -0.8600     6.3570 hc         1 CWM       0.060367
     15 H5           1.8180    -0.0880     6.3140 hc         1 CWM       0.060367
     16 H6           0.3540     0.9050     6.3570 hc         1 CWM       0.060367
     17 H7          -1.3190     0.1330     4.0710 hn         1 CWM       0.308700
     18 H9          -2.3770    -0.8330     0.9030 ho         1 CWM       0.418000
     19 C11          0.7900    -0.0130     5.9820 c3         1 CWM      -0.098400
@<TRIPOS>BOND
     1     9     6 1
     2     9     7 2
     3     3     6 ar
     4     3     2 ar
     5     6     5 ar
     6    19     7 1
     7     7     8 1
     8     2     1 ar
     9     5     8 1
    10     5     4 ar
    11     1     4 ar
    12     4    10 1
    13     1    11 1
    14     2    12 1
    15     3    13 1
    16    19    14 1
    17    19    15 1
    18    19    16 1
    19     8    17 1
    20    10    18 1
@<TRIPOS>SUBSTRUCTURE
     1 CWM         1 TEMP              0 ****  ****    0 ROOT
