@<TRIPOS>MOLECULE
CWP
   35    37     1     0     0
SMALL
bcc


@<TRIPOS>ATOM
      1 C1           0.0000     0.0000     0.0000 cc         1 CWP       0.339700
      2 C3           1.7800     0.0000     1.3190 ca         1 CWP       0.183800
      3 C12         -1.2510     0.0040    -3.5110 cc         1 CWP      -0.270600
      4 C13         -1.7560     1.0920    -4.1350 cd         1 CWP      -0.304300
      5 C14         -2.7320     0.6580    -5.0380 cd         1 CWP       0.362600
      6 C17         -3.5500     1.5390    -5.9470 c3         1 CWP      -0.002400
      7 C18         -0.1750     0.0020    -2.4560 c3         1 CWP       0.260100
      8 C10          4.4660    -0.0010     3.8270 c3         1 CWP      -0.035400
      9 C4           0.6070     0.0070     2.0930 ca         1 CWP      -0.012900
     10 C7           3.0900    -0.0000     3.2150 ca         1 CWP       0.362600
     11 C8           1.9790     0.0140     4.0430 ca         1 CWP      -0.225300
     12 C9           0.7130     0.0120     3.4860 ca         1 CWP      -0.027000
     13 N11         -1.8900    -1.0820    -3.9970 na         1 CWP       0.501400
     14 N15         -2.8110    -0.6450    -4.9580 nc         1 CWP      -0.636800
     15 N19         -0.7920     0.0010    -1.1280 nu         1 CWP      -0.476200
     16 N2           1.3670     0.0000     0.0000 na         1 CWP       0.116000
     17 N5          -0.4450     0.0040     1.2320 nd         1 CWP      -0.593100
     18 N6           2.9660     0.0000     1.9030 nb         1 CWP      -0.553000
     19 H1          -1.4350     2.1160    -3.9880 ha         1 CWP       0.138000
     20 H2          -2.2940    -3.1260    -4.1760 h1         1 CWP       0.024700
     21 H3          -1.8930    -2.5840    -2.5410 h1         1 CWP       0.024700
     22 H4          -0.6210    -2.7270    -3.7620 h1         1 CWP       0.024700
     23 H5          -2.8910     2.0820    -6.6140 hc         1 CWP       0.011367
     24 H6          -4.1190     2.2430    -5.3510 hc         1 CWP       0.011367
     25 H7          -4.2280     0.9270    -6.5280 hc         1 CWP       0.011367
     26 H8           0.4400    -0.8820    -2.5690 h1         1 CWP       0.013700
     27 H9           0.4410     0.8870    -2.5680 h1         1 CWP       0.013700
     28 H10          5.2110     0.0390     3.0410 hc         1 CWP       0.011700
     29 H11          4.5750     0.8620     4.4720 hc         1 CWP       0.011700
     30 H12          4.6030    -0.9050     4.4080 hc         1 CWP       0.011700
     31 H13          2.1000    -0.0970     5.1140 ha         1 CWP       0.115000
     32 H14         -0.1710     0.0230     4.1120 ha         1 CWP       0.115000
     33 H15         -1.7880     0.0430    -1.0400 hn         1 CWP       0.320800
     34 H16          1.9550     0.1190    -0.8010 hn         1 CWP       0.132700
     35 C16         -1.6600    -2.4700    -3.5930 c3         1 CWP       0.016600
@<TRIPOS>BOND
     1     1    15 1   
     2     1    16 1   
     3     1    17 2   
     4     2     9 ar  
     5     2    16 1   
     6     2    18 ar  
     7     3     4 2   
     8     3     7 1   
     9     3    13 1   
    10     4     5 1   
    11     4    19 1   
    12     5     6 1   
    13     5    14 2   
    14     6    23 1   
    15     6    24 1   
    16     6    25 1   
    17     7    15 1   
    18     7    26 1   
    19     7    27 1   
    20     8    10 1   
    21     8    28 1   
    22     8    29 1   
    23     8    30 1   
    24     9    12 ar  
    25     9    17 1   
    26    10    11 ar  
    27    10    18 ar  
    28    11    12 ar  
    29    11    31 1   
    30    12    32 1   
    31    13    14 1   
    32    13    35 1   
    33    15    33 1   
    34    16    34 1   
    35    20    35 1   
    36    21    35 1   
    37    22    35 1   
@<TRIPOS>SUBSTRUCTURE
     1 CWP         1 TEMP              0 ****  ****    0 ROOT
