@<TRIPOS>MOLECULE
molecule
   35    37     1     0     0
SMALL
bcc


@<TRIPOS>ATOM
      1 C1           0.0000     0.0000     0.0000 cc         1 CWP       0.676700
      2 C3           1.7800     0.0000     1.3190 ca         1 CWP       0.414800
      3 C12         -1.2510     0.0040    -3.5110 cc         1 CWP      -0.105600
      4 C13         -1.7560     1.0920    -4.1350 cd         1 CWP      -0.321300
      5 C14         -2.7320     0.6580    -5.0380 cd         1 CWP       0.338600
      6 C17         -3.5500     1.5390    -5.9470 c3         1 CWP      -0.110400
      7 C18         -0.1750     0.0020    -2.4560 c3         1 CWP       0.306100
      8 C10          4.4660    -0.0010     3.8270 c3         1 CWP      -0.137400
      9 C4           0.6070     0.0070     2.0930 ca         1 CWP       0.009100
     10 C7           3.0900    -0.0000     3.2150 ca         1 CWP       0.434600
     11 C8           1.9790     0.0140     4.0430 ca         1 CWP      -0.260300
     12 C9           0.7130     0.0120     3.4860 ca         1 CWP      -0.055000
     13 N11         -1.8900    -1.0820    -3.9970 na         1 CWP       0.073400
     14 N15         -2.8110    -0.6450    -4.9580 nc         1 CWP      -0.498800
     15 N19         -0.7920     0.0010    -1.1280 nu         1 CWP      -0.878200
     16 N2           1.3670     0.0000     0.0000 na         1 CWP      -0.396000
     17 N5          -0.4450     0.0040     1.2320 nd         1 CWP      -0.664100
     18 N6           2.9660     0.0000     1.9030 nb         1 CWP      -0.701000
     19 H1          -1.4350     2.1160    -3.9880 ha         1 CWP       0.158000
     20 H2          -2.2940    -3.1260    -4.1760 h1         1 CWP       0.057700
     21 H3          -1.8930    -2.5840    -2.5410 h1         1 CWP       0.057700
     22 H4          -0.6210    -2.7270    -3.7620 h1         1 CWP       0.057700
     23 H5          -2.8910     2.0820    -6.6140 hc         1 CWP       0.051700
     24 H6          -4.1190     2.2430    -5.3510 hc         1 CWP       0.051700
     25 H7          -4.2280     0.9270    -6.5280 hc         1 CWP       0.051700
     26 H8           0.4400    -0.8820    -2.5690 h1         1 CWP       0.050200
     27 H9           0.4410     0.8870    -2.5680 h1         1 CWP       0.050200
     28 H10          5.2110     0.0390     3.0410 hc         1 CWP       0.050700
     29 H11          4.5750     0.8620     4.4720 hc         1 CWP       0.050700
     30 H12          4.6030    -0.9050     4.4080 hc         1 CWP       0.050700
     31 H13          2.1000    -0.0970     5.1140 ha         1 CWP       0.140000
     32 H14         -0.1710     0.0230     4.1120 ha         1 CWP       0.148000
     33 H15         -1.7880     0.0430    -1.0400 hn         1 CWP       0.479800
     34 H16          1.9550     0.1190    -0.8010 hn         1 CWP       0.305700
     35 C16         -1.6600    -2.4700    -3.5930 c3         1 CWP       0.060600
@<TRIPOS>BOND
     1    11    12 ar
     2    11    10 ar
     3    12     9 ar
     4     8    10 1
     5     6     5 1
     6    10    18 ar
     7    14     5 2
     8    14    13 1
     9     5     4 1
    10     9    17 1
    11     9     2 ar
    12    18     2 ar
    13    13    35 1
    14    13     3 1
    15    17     1 2
    16     2    16 1
    17     4     3 2
    18     3     7 1
    19     1    16 1
    20     1    15 1
    21     7    15 1
    22     4    19 1
    23    35    20 1
    24    35    21 1
    25    35    22 1
    26     6    23 1
    27     6    24 1
    28     6    25 1
    29     7    26 1
    30     7    27 1
    31     8    28 1
    32     8    29 1
    33     8    30 1
    34    11    31 1
    35    12    32 1
    36    15    33 1
    37    16    34 1
@<TRIPOS>SUBSTRUCTURE
     1 CWP         1 TEMP              0 ****  ****    0 ROOT
