@<TRIPOS>MOLECULE
molecule
   72    76     1     0     0
SMALL
bcc


@<TRIPOS>ATOM
      1 CAA          0.0000     0.0000     0.0000 c3         1 CWQ       0.091600
      2 CAC          1.9580     0.0000     1.3850 c3         1 CWQ       0.081800
      3 CAD          3.4760     0.1950     1.3890 c3         1 CWQ       0.074000
      4 CAF          4.4980    -1.2650     3.1960 c3         1 CWQ       0.102000
      5 CAG          3.3570    -2.0850     3.7980 c3         1 CWQ      -0.091700
      6 CAH          2.8490    -1.3990     5.0700 c3         1 CWQ      -0.077400
      7 CAI          1.7480    -2.2570     5.6990 c3         1 CWQ      -0.080400
      8 CAJ          2.3030    -3.6530     5.9940 c3         1 CWQ       0.153800
      9 CAL          3.1840    -5.6600     4.9690 c3         1 CWQ       0.167500
     10 CAM          1.9860    -6.5200     5.4200 c3         1 CWQ      -0.049100
     11 CAN          2.0070    -6.4680     6.9330 ca         1 CWQ      -0.101800
     12 CAO          1.0210    -6.7780     7.8560 ca         1 CWQ      -0.113000
     13 CAP          1.2710    -6.6520     9.2080 ca         1 CWQ      -0.123000
     14 CAQ          2.5100    -6.2170     9.6430 ca         1 CWQ      -0.123000
     15 CAR          3.4940    -5.9090     8.7250 ca         1 CWQ      -0.113000
     16 CAS          3.2450    -6.0350     7.3680 ca         1 CWQ      -0.101800
     17 CAT          4.1440    -5.7640     6.1740 c3         1 CWQ      -0.049100
     18 CAU          3.8640    -3.4860     4.1480 c3         1 CWQ       0.167800
     19 CAV          1.9580    -1.2010    -0.6920 c3         1 CWQ       0.091600
     20 CAW          3.9820     1.0820     3.6010 c          1 CWQ       0.572600
     21 CAX          3.3660     2.3650     3.1910 ca         1 CWQ       0.391800
     22 CBA          2.3990     3.6510     1.5330 ca         1 CWQ       0.389600
     23 CBB          2.2330     4.7310     2.4390 ca         1 CWQ      -0.119300
     24 CBC          2.6710     4.5830     3.7690 ca         1 CWQ      -0.066000
     25 CBD          3.2360     3.3960     4.1350 ca         1 CWQ      -0.193300
     26 CBE          1.9580     3.8020     0.1990 ca         1 CWQ       0.044800
     27 CBF          1.3850     4.9780    -0.1920 ca         1 CWQ      -0.155000
     28 CBG          1.2260     6.0330     0.7030 ca         1 CWQ      -0.093000
     29 CBH          1.6380     5.9230     1.9960 ca         1 CWQ      -0.107000
     30 NAB          1.4690     0.0000     0.0000 nx         1 CWQ      -0.653400
     31 NAE          3.9850     0.0340     2.7530 n          1 CWQ      -0.471800
     32 NAK          2.7730    -4.2670     4.7480 n3         1 CWQ      -0.724600
     33 NAZ          2.9580     2.5160     1.9460 nb         1 CWQ      -0.716000
     34 OAY          4.4830     0.9730     4.7030 o          1 CWQ      -0.557100
     35 OBI          2.1070     2.7860    -0.6890 oh         1 CWQ      -0.563100
     36 H1          -0.3610    -0.9540     0.3640 hx         1 CWQ       0.096533
     37 H2          -0.3610     0.1610    -1.0090 hx         1 CWQ       0.096533
     38 H3          -0.3610     0.7930     0.6440 hx         1 CWQ       0.096533
     39 H4           1.4890     0.8070     1.9340 hx         1 CWQ       0.106700
     40 H5           1.7150    -0.9450     1.8550 hx         1 CWQ       0.106700
     41 H6           3.9370    -0.5420     0.7430 h1         1 CWQ       0.089200
     42 H7           3.7140     1.1890     1.0300 h1         1 CWQ       0.089200
     43 H8           5.2680    -1.1140     3.9430 h1         1 CWQ       0.072200
     44 H9           4.9170    -1.7950     2.3490 h1         1 CWQ       0.072200
     45 H10          2.5460    -2.1650     3.0840 hc         1 CWQ       0.036700
     46 H11          2.4480    -0.4250     4.8190 hc         1 CWQ       0.050200
     47 H12          3.6670    -1.2900     5.7720 hc         1 CWQ       0.050200
     48 H13          1.4170    -1.7980     6.6230 hc         1 CWQ       0.047700
     49 H14          0.9160    -2.3380     5.0110 hc         1 CWQ       0.047700
     50 H15          1.5210    -4.2670     6.4250 h1         1 CWQ       0.055200
     51 H16          3.1290    -3.5720     6.6900 h1         1 CWQ       0.055200
     52 H17          3.6410    -6.0790     4.0810 h1         1 CWQ       0.068700
     53 H18          2.1280    -7.5420     5.0900 hc         1 CWQ       0.062200
     54 H19          1.0660    -6.0810     5.0550 hc         1 CWQ       0.062200
     55 H20          0.0510    -7.1180     7.5160 ha         1 CWQ       0.131000
     56 H21          0.4990    -6.8950     9.9270 ha         1 CWQ       0.136000
     57 H22          2.7080    -6.1190    10.7030 ha         1 CWQ       0.136000
     58 H23          4.4640    -5.5680     9.0660 ha         1 CWQ       0.131000
     59 H24          4.8360    -6.5850     6.0320 hc         1 CWQ       0.062200
     60 H25          4.6780    -4.8310     6.3100 hc         1 CWQ       0.062200
     61 H26          4.6800    -3.4070     4.8560 h1         1 CWQ       0.038700
     62 H27          4.2070    -3.9800     3.2470 h1         1 CWQ       0.038700
     63 H28          1.3790    -1.3590    -1.5940 hx         1 CWQ       0.096533
     64 H29          1.8550    -2.0600    -0.0420 hx         1 CWQ       0.096533
     65 H30          3.0020    -1.0680    -0.9520 hx         1 CWQ       0.096533
     66 H31          2.5620     5.3900     4.4830 ha         1 CWQ       0.166000
     67 H32          3.6630     3.2820     5.1240 ha         1 CWQ       0.181000
     68 H33          1.0480     5.0920    -1.2160 ha         1 CWQ       0.149000
     69 H34          0.7670     6.9550     0.3650 ha         1 CWQ       0.156000
     70 H35          1.5080     6.7520     2.6800 ha         1 CWQ       0.157000
     71 H38          2.4840     3.1180    -1.4870 ho         1 CWQ       0.444000
     72 H36          1.8030     0.8170    -0.4720 hn         1 CWQ       0.475800
@<TRIPOS>BOND
     1    14    15 ar
     2    14    13 ar
     3    15    16 ar
     4    13    12 ar
     5    16    17 1
     6    16    11 ar
     7    12    11 ar
     8    17     9 1
     9    11    10 1
    10    10     9 1
    11     9    32 1
    12     8    32 1
    13     8     7 1
    14    32    18 1
    15     7     6 1
    16    18     5 1
    17     6     5 1
    18     5     4 1
    19     4    31 1
    20    34    20 2
    21    31    20 1
    22    31     3 1
    23    20    21 1
    24     3     2 1
    25     2    30 1
    26    21    25 ar
    27    21    33 ar
    28    25    24 ar
    29    19    30 1
    30    30     1 1
    31    33    22 ar
    32    24    23 ar
    33    22    23 ar
    34    22    26 ar
    35    23    29 ar
    36    35    26 1
    37    26    27 ar
    38    29    28 ar
    39    27    28 ar
    40     1    36 1
    41     1    37 1
    42     1    38 1
    43     2    39 1
    44     2    40 1
    45     3    41 1
    46     3    42 1
    47     4    43 1
    48     4    44 1
    49     5    45 1
    50     6    46 1
    51     6    47 1
    52     7    48 1
    53     7    49 1
    54     8    50 1
    55     8    51 1
    56     9    52 1
    57    10    53 1
    58    10    54 1
    59    12    55 1
    60    13    56 1
    61    14    57 1
    62    15    58 1
    63    17    59 1
    64    17    60 1
    65    18    61 1
    66    18    62 1
    67    19    63 1
    68    19    64 1
    69    19    65 1
    70    24    66 1
    71    25    67 1
    72    27    68 1
    73    28    69 1
    74    29    70 1
    75    35    71 1
    76    30    72 1
@<TRIPOS>SUBSTRUCTURE
     1 CWQ         1 TEMP              0 ****  ****    0 ROOT
