@<TRIPOS>MOLECULE
molecule
   21    22     1     0     0
SMALL
bcc


@<TRIPOS>ATOM
      1 N1           0.0000     0.0000     0.0000 nb         1 CWS      -0.733000
      2 C2           1.3120     0.0000     0.0000 ca         1 CWS       0.689900
      3 N3           2.0310     0.0000     1.1110 nb         1 CWS      -0.771000
      4 C4           1.4590     0.0020     2.3080 ca         1 CWS       0.739200
      5 C5          -0.6450     0.0050     3.5900 ca         1 CWS      -0.089000
      6 C6          -2.0100     0.0070     3.5890 ca         1 CWS      -0.093300
      7 C7          -2.7240     0.0050     2.3950 ca         1 CWS      -0.100000
      8 C8          -2.0820     0.0010     1.1920 ca         1 CWS      -0.174300
      9 C4A          0.0440     0.0030     2.3720 ca         1 CWS      -0.289600
     10 C8A         -0.6810     0.0020     1.1550 ca         1 CWS       0.443600
     11 C11         -2.7530     0.0100     4.9000 c3         1 CWS      -0.048800
     12 NA4          2.2200     0.0020     3.4570 nv         1 CWS      -1.081500
     13 H2           1.8290    -0.0020    -0.9520 h5         1 CWS       0.057100
     14 HA41         2.5150     0.8690     3.8610 hn         1 CWS       0.442800
     15 HA42         2.5130    -0.8650     3.8620 hn         1 CWS       0.442800
     16 H5          -0.1000     0.0060     4.5260 ha         1 CWS       0.142000
     17 H7          -3.8070     0.0060     2.4210 ha         1 CWS       0.135000
     18 H111        -3.8200     0.0130     4.7110 hc         1 CWS       0.045033
     19 H112        -2.4890    -0.8750     5.4670 hc         1 CWS       0.045033
     20 H113        -2.4840     0.8940     5.4650 hc         1 CWS       0.045033
     21 H8          -2.6510     0.0000     0.2700 ha         1 CWS       0.152000
@<TRIPOS>BOND
     1     1     2 ar
     2     1    10 ar
     3     2     3 ar
     4     3     4 ar
     5     4     9 ar
     6     4    12 1
     7     5     6 ar
     8     5     9 ar
     9     6     7 ar
    10     6    11 1
    11     7     8 ar
    12     8    10 ar
    13     9    10 ar
    14     2    13 1
    15    12    14 1
    16    12    15 1
    17     5    16 1
    18     7    17 1
    19    11    18 1
    20    11    19 1
    21    11    20 1
    22     8    21 1
@<TRIPOS>SUBSTRUCTURE
     1 CWS         1 TEMP              0 ****  ****    0 ROOT
