@<TRIPOS>MOLECULE
molecule
   38    40     1     0     0
SMALL
bcc


@<TRIPOS>ATOM
      1 CAA          0.0000     0.0000     0.0000 c3         1 CWT      -0.110100
      2 CAE          2.0390     1.2490    -0.7230 c3         1 CWT      -0.110100
      3 CAF          1.5300     0.0000     0.0000 c3         1 CWT       0.248500
      4 NAG          2.0190     0.0000     1.3810 nu         1 CWT      -0.861200
      5 CAH          2.1500    -1.1870     2.0640 cc         1 CWT       0.690800
      6 NAI          1.8660    -2.3610     1.5670 nd         1 CWT      -0.715300
      7 CAJ          2.1110    -3.3200     2.5110 cd         1 CWT       0.018400
      8 CAK          2.5990    -2.5990     3.7010 c          1 CWT       0.681700
      9 NAL          2.6030    -1.2930     3.3540 n          1 CWT      -0.432300
     10 OAM          2.9320    -3.0790     4.7690 o          1 CWT      -0.593500
     11 CAN          1.9400    -4.6690     2.3790 ce         1 CWT      -0.015200
     12 CAO          1.3350    -5.2140     1.1600 ca         1 CWT      -0.070800
     13 CAP          1.0490    -4.3700     0.0780 ca         1 CWT      -0.089000
     14 CAQ          0.4810    -4.8900    -1.0680 ca         1 CWT       0.031100
     15 CAR          0.1910    -6.2540    -1.1470 ca         1 CWT       0.056100
     16 CAS          0.4740    -7.0900    -0.0750 ca         1 CWT      -0.126000
     17 CAT          1.0470    -6.5830     1.0690 ca         1 CWT      -0.107000
     18 C21          3.0180    -0.1800     4.2110 c3         1 CWT       0.098300
     19 OAU          0.1110    -4.2980    -2.2410 os         1 CWT      -0.329900
     20 CAV         -0.0270    -5.3730    -3.1870 c3         1 CWT       0.331200
     21 OAW         -0.3590    -6.5100    -2.3680 os         1 CWT      -0.328900
     22 HAA1        -0.3610    -0.1010    -1.0160 hc         1 CWT       0.045200
     23 HAA2        -0.3610    -0.8300     0.5950 hc         1 CWT       0.045200
     24 HAA3        -0.3610     0.9300     0.4210 hc         1 CWT       0.045200
     25 HAF          1.8910    -0.8850    -0.5110 h1         1 CWT       0.082700
     26 HAE1         1.6840     1.2450    -1.7460 hc         1 CWT       0.045200
     27 HAE2         3.1220     1.2540    -0.7160 hc         1 CWT       0.045200
     28 HAE3         1.6720     2.1340    -0.2170 hc         1 CWT       0.045200
     29 HAG          2.2820     0.8610     1.8190 hn         1 CWT       0.445800
     30 HAN          2.1720    -5.3270     3.2080 ha         1 CWT       0.153000
     31 H211         3.3240    -0.5620     5.1770 h1         1 CWT       0.052033
     32 H212         3.8480     0.3410     3.7490 h1         1 CWT       0.052033
     33 H213         2.1880     0.5050     4.3400 h1         1 CWT       0.052033
     34 HAP          1.3420    -3.3280     0.1120 ha         1 CWT       0.205000
     35 HAT          1.2450    -7.2350     1.9110 ha         1 CWT       0.139000
     36 HAS          0.2520    -8.1480    -0.1430 ha         1 CWT       0.142000
     37 HAV1        -0.8420    -5.1610    -3.8690 h2         1 CWT       0.068200
     38 HAV2         0.9180    -5.5450    -3.6890 h2         1 CWT       0.068200
@<TRIPOS>BOND
     1     1     3 1
     2     2     3 1
     3     3     4 1
     4     4     5 1
     5     5     6 2
     6     5     9 1
     7     6     7 1
     8     7     8 1
     9     7    11 2
    10     8     9 1
    11     8    10 2
    12     9    18 1
    13    11    12 1
    14    12    13 ar
    15    12    17 ar
    16    13    14 ar
    17    14    15 ar
    18    14    19 1
    19    15    16 ar
    20    15    21 1
    21    16    17 ar
    22    19    20 1
    23    20    21 1
    24     1    22 1
    25     1    23 1
    26     1    24 1
    27     3    25 1
    28     2    26 1
    29     2    27 1
    30     2    28 1
    31     4    29 1
    32    11    30 1
    33    18    31 1
    34    18    32 1
    35    18    33 1
    36    13    34 1
    37    17    35 1
    38    16    36 1
    39    20    37 1
    40    20    38 1
@<TRIPOS>SUBSTRUCTURE
     1 CWT         1 TEMP              0 ****  ****    0 ROOT
