@<TRIPOS>MOLECULE
CWT
   38    40     1     0     0
SMALL
bcc


@<TRIPOS>ATOM
      1 CAA          0.0000     0.0000     0.0000 c3         1 CWT      -0.012600
      2 CAE          2.0390     1.2490    -0.7230 c3         1 CWT      -0.012600
      3 CAF          1.5300     0.0000     0.0000 c3         1 CWT       0.136500
      4 NAG          2.0190     0.0000     1.3810 nu         1 CWT      -0.442200
      5 CAH          2.1500    -1.1870     2.0640 cc         1 CWT       0.391800
      6 NAI          1.8660    -2.3610     1.5670 nd         1 CWT      -0.643300
      7 CAJ          2.1110    -3.3200     2.5110 cd         1 CWT      -0.038600
      8 CAK          2.5990    -2.5990     3.7010 c          1 CWT       0.615700
      9 NAL          2.6030    -1.2930     3.3540 n          1 CWT      -0.054300
     10 OAM          2.9320    -3.0790     4.7690 o          1 CWT      -0.633500
     11 CAN          1.9400    -4.6690     2.3790 ce         1 CWT       0.040800
     12 CAO          1.3350    -5.2140     1.1600 ca         1 CWT      -0.077800
     13 CAP          1.0490    -4.3700     0.0780 ca         1 CWT      -0.093000
     14 CAQ          0.4810    -4.8900    -1.0680 ca         1 CWT       0.042100
     15 CAR          0.1910    -6.2540    -1.1470 ca         1 CWT       0.063100
     16 CAS          0.4740    -7.0900    -0.0750 ca         1 CWT      -0.102000
     17 CAT          1.0470    -6.5830     1.0690 ca         1 CWT      -0.081000
     18 C21          3.0180    -0.1800     4.2110 c3         1 CWT       0.084300
     19 OAU          0.1110    -4.2980    -2.2410 os         1 CWT      -0.316900
     20 CAV         -0.0270    -5.3730    -3.1870 c3         1 CWT       0.430200
     21 OAW         -0.3590    -6.5100    -2.3680 os         1 CWT      -0.316900
     22 HAA1        -0.3610     0.9300     0.4210 hc         1 CWT       0.012367
     23 HAA2        -0.3610    -0.8300     0.5950 hc         1 CWT       0.012367
     24 HAA3        -0.3610    -0.1010    -1.0160 hc         1 CWT       0.012367
     25 HAF          1.8910    -0.8850    -0.5110 h1         1 CWT       0.057700
     26 HAE1         3.1220     1.2530    -0.7170 hc         1 CWT       0.012367
     27 HAE2         1.6730     2.1340    -0.2160 hc         1 CWT       0.012367
     28 HAE3         1.6830     1.2450    -1.7460 hc         1 CWT       0.012367
     29 HAG          2.2880     0.8600     1.8160 hn         1 CWT       0.291800
     30 HAN          2.1720    -5.3270     3.2080 ha         1 CWT       0.117000
     31 H211         3.3230    -0.5620     5.1770 h1         1 CWT       0.018700
     32 H212         2.1880     0.5050     4.3390 h1         1 CWT       0.018700
     33 H213         3.8480     0.3410     3.7500 h1         1 CWT       0.018700
     34 HAP          1.3440    -3.3280     0.1110 ha         1 CWT       0.183000
     35 HAT          1.2970    -7.2450     1.8890 ha         1 CWT       0.108000
     36 HAS          0.2520    -8.1480    -0.1430 ha         1 CWT       0.111000
     37 HAV1        -0.8420    -5.1610    -3.8690 h2         1 CWT       0.011700
     38 HAV2         0.9180    -5.5450    -3.6890 h2         1 CWT       0.011700
@<TRIPOS>BOND
     1     1     3 1   
     2     1    22 1   
     3     1    23 1   
     4     1    24 1   
     5     2     3 1   
     6     2    26 1   
     7     2    27 1   
     8     2    28 1   
     9     3     4 1   
    10     3    25 1   
    11     4     5 1   
    12     4    29 1   
    13     5     6 2   
    14     5     9 1   
    15     6     7 1   
    16     7     8 1   
    17     7    11 2   
    18     8     9 1   
    19     8    10 2   
    20     9    18 1   
    21    11    12 1   
    22    11    30 1   
    23    12    13 ar  
    24    12    17 ar  
    25    13    14 ar  
    26    13    34 1   
    27    14    15 ar  
    28    14    19 1   
    29    15    16 ar  
    30    15    21 1   
    31    16    17 ar  
    32    16    36 1   
    33    17    35 1   
    34    18    31 1   
    35    18    32 1   
    36    18    33 1   
    37    19    20 1   
    38    20    21 1   
    39    20    37 1   
    40    20    38 1   
@<TRIPOS>SUBSTRUCTURE
     1 CWT         1 TEMP              0 ****  ****    0 ROOT
