@<TRIPOS>MOLECULE
CWU
   38    37     1     0     0
SMALL
bcc


@<TRIPOS>ATOM
      1 C1         -3.3640   -0.7020    1.1030 c3        1 CWU     -0.117000
      2 C2         -0.7580    0.4500   -0.8600 c1        1 CWU      0.110000
      3 C3         -2.6640   -0.5860    2.3390 c1        1 CWU     -0.162000
      4 C4          0.3180    0.6970   -0.2380 c1        1 CWU     -0.580000
      5 C5          7.3720   -1.1660    2.1440 c3        1 CWU     -0.078000
      6 C6          8.4430   -0.3070    2.6590 c1        1 CWU     -0.280000
      7 C7          5.8240    0.2900    3.5490 c2        1 CWU     -0.411000
      8 C8         -2.0500   -0.4770    3.3610 c1        1 CWU     -0.153000
      9 C9          1.4420    0.9350    0.4270 c2        1 CWU      0.222000
     10 C10         6.0130   -0.8300    2.6230 c2        1 CWU     -0.063000
     11 C11         8.1930    0.7180    3.5180 c2        1 CWU     -0.266000
     12 C12         6.8930    1.0550    3.9960 c2        1 CWU      0.312000
     13 C14        -1.2940   -0.3420    4.5680 c3        1 CWU     -0.135000
     14 C15        10.4670    1.3460    3.6740 c1        1 CWU     -0.115000
     15 C16         1.5130    1.5560    1.7550 c3        1 CWU     -0.273000
     16 C17         0.0230    0.3420    4.2860 c1        1 CWU     -0.004000
     17 C18         4.7830   -1.3700    2.3820 c2        1 CWU     -0.166000
     18 O19         3.6510    1.0600    4.4970 o         1 CWU     -0.440000
     19 O20         3.7730   -0.6710    3.0950 os        1 CWU     -0.237000
     20 O21         9.2540    1.5430    4.0080 os        1 CWU     -0.011000
     21 O22         6.7380    2.0940    4.8560 oh        1 CWU     -0.231000
     22 O23         1.0370   -0.3800    4.7030 oh        1 CWU     -0.241000
     23 H1         -2.7160   -0.3390    0.2570 hc        1 CWU      0.096667
     24 H2         -4.3020   -0.0890    1.1200 hc        1 CWU      0.096667
     25 H3         -3.6430   -1.7690    0.9050 hc        1 CWU      0.096667
     26 H4          2.4180    0.6620   -0.0270 ha        1 CWU      0.121000
     27 H5          7.4000   -1.1130    1.0190 hc        1 CWU      0.103500
     28 H6          7.6190   -2.2290    2.4280 hc        1 CWU      0.103500
     29 H141       -1.1800   -1.3510    5.0580 hc        1 CWU      0.103000
     30 H142       -1.8410    0.3280    5.2930 hc        1 CWU      0.103000
     31 H16         0.5290    1.5450    2.2950 hc        1 CWU      0.132667
     32 H181        1.8510    2.6190    1.6460 hc        1 CWU      0.132667
     33 H182        4.4010   -2.1950    1.7950 h4        1 CWU      0.168000
     34 H17         2.2680    1.0230    2.3990 hc        1 CWU      0.132667
     35 H151        5.7910    2.1720    5.0750 ho        1 CWU      0.234000
     36 H152       10.7330    0.5150    2.9850 ha        1 CWU      0.051000
     37 H23         1.8760    0.0990    4.5010 ho        1 CWU      0.301000
     38 C13         4.4140    0.3510    3.8190 c2        1 CWU      0.345000
@<TRIPOS>BOND
     1    1    3 1   
     2    1   23 1   
     3    1   24 1   
     4    1   25 1   
     5    2    4 1   
     6    3    8 1   
     7    4    9 1   
     8    5    6 1   
     9    5   10 1   
    10    5   27 1   
    11    5   28 1   
    12    6   11 1   
    13    7   10 1   
    14    7   12 1   
    15    7   38 1   
    16    8   13 1   
    17    9   15 1   
    18    9   26 1   
    19   10   17 1   
    20   11   12 1   
    21   11   20 1   
    22   12   21 1   
    23   13   16 1   
    24   13   29 1   
    25   13   30 1   
    26   14   20 1   
    27   14   36 1   
    28   15   31 1   
    29   15   32 1   
    30   15   34 1   
    31   16   22 1   
    32   17   19 1   
    33   17   33 1   
    34   18   38 1   
    35   19   38 1   
    36   21   35 1   
    37   22   37 1   
@<TRIPOS>SUBSTRUCTURE
     1 CWU         1 TEMP              0 ****  ****    0 ROOT
