@<TRIPOS>MOLECULE
CWX
   52    54     1     0     0
SMALL
bcc


@<TRIPOS>ATOM
      1 CAR          0.0000     0.0000     0.0000 c3         1 CWX       0.262100
      2 NAQ          1.4650     0.0000     0.0000 n7         1 CWX      -0.582100
      3 SAN          2.2930     0.0000     1.4340 sy         1 CWX       1.042200
      4 OAO          3.6740    -0.0350     1.0990 o          1 CWX      -0.589300
      5 OAP          1.7130     1.0220     2.2320 o          1 CWX      -0.589300
      6 CAK          1.9380    -1.5250     2.2420 ca         1 CWX      -0.169500
      7 CAJ          2.7400    -2.6280     2.0150 ca         1 CWX       0.011000
      8 CAI          2.4660    -3.8260     2.6450 ca         1 CWX      -0.141500
      9 CAL          0.8610    -1.6120     3.1060 ca         1 CWX       0.011000
     10 CAM          0.5780    -2.8040     3.7420 ca         1 CWX      -0.141500
     11 CAH          1.3800    -3.9200     3.5120 cp         1 CWX       0.041000
     12 CAE          1.0800    -5.2040     4.1930 cp         1 CWX      -0.094000
     13 CAD         -0.0070    -5.2980     5.0600 ca         1 CWX      -0.048000
     14 CAC         -0.2830    -6.4930     5.6910 ca         1 CWX      -0.165000
     15 CAF          1.8820    -6.3200     3.9630 ca         1 CWX      -0.048000
     16 CAG          1.6020    -7.5130     4.5960 ca         1 CWX      -0.165000
     17 CAB          0.5210    -7.6000     5.4640 ca         1 CWX       0.162100
     18 O1           0.2470    -8.7770     6.0870 os         1 CWX      -0.332900
     19 C1           1.1150    -9.8770     5.8070 c3         1 CWX       0.359900
     20 O5           2.3940    -9.6370     6.3980 os         1 CWX      -0.391600
     21 C5           2.3570    -9.4530     7.8140 c3         1 CWX       0.161100
     22 C6           3.7710    -9.1770     8.3300 c3         1 CWX       0.225400
     23 O6           4.2380    -7.9350     7.8000 oh         1 CWX      -0.584800
     24 C4           1.8090   -10.7180     8.4790 c3         1 CWX       0.147100
     25 O4           1.7170   -10.5150     9.8900 oh         1 CWX      -0.584800
     26 C3           0.4180   -11.0220     7.9130 c3         1 CWX       0.163100
     27 O3          -0.0710   -12.2420     8.4740 oh         1 CWX      -0.573800
     28 C2           0.5170   -11.1600     6.3900 c3         1 CWX       0.145100
     29 O2           1.3580   -12.2690     6.0660 oh         1 CWX      -0.554800
     30 H21         -0.3610     0.4030    -0.9380 h1         1 CWX       0.000700
     31 H22         -0.3610    -1.0140     0.1200 h1         1 CWX       0.000700
     32 H31          2.7260    -6.2510     3.2860 ha         1 CWX       0.111000
     33 H32          2.2260    -8.3800     4.4190 ha         1 CWX       0.125000
     34 HO3         -0.9390   -12.1050     8.8150 ho         1 CWX       0.391000
     35 H2          -0.4720   -11.3170     5.9780 h1         1 CWX       0.014700
     36 HAR         -0.3610     0.6110     0.8180 h1         1 CWX       0.000700
     37 HAQ          1.9650     0.0390    -0.8660 hn         1 CWX       0.346800
     38 HAJ          3.5840    -2.5540     1.3400 ha         1 CWX       0.121000
     39 HAL          0.2380    -0.7430     3.2830 ha         1 CWX       0.121000
     40 HAI          3.0930    -4.6900     2.4640 ha         1 CWX       0.117500
     41 HAM         -0.2670    -2.8710     4.4170 ha         1 CWX       0.117500
     42 HAD         -0.6350    -4.4330     5.2380 ha         1 CWX       0.111000
     43 HAC         -1.1270    -6.5660     6.3670 ha         1 CWX       0.125000
     44 H1           1.2300    -9.9890     4.7360 h2         1 CWX       0.038700
     45 H5           1.7120    -8.6150     8.0500 h1         1 CWX       0.039700
     46 H61          3.7570    -9.1260     9.4120 h1         1 CWX      -0.001800
     47 H62          4.4320    -9.9760     8.0150 h1         1 CWX      -0.001800
     48 H4           2.4710   -11.5500     8.2700 h1         1 CWX       0.036700
     49 HO6          5.0600    -7.7100     8.2030 ho         1 CWX       0.388000
     50 HO4          2.0660   -11.2670    10.3400 ho         1 CWX       0.399000
     51 H3          -0.2560   -10.2100     8.1580 h1         1 CWX       0.028700
     52 HO2          0.9890   -12.7400     5.3380 ho         1 CWX       0.390000
@<TRIPOS>BOND
     1     1     2 1   
     2     1    30 1   
     3     1    31 1   
     4     1    36 1   
     5     2     3 1   
     6     2    37 1   
     7     3     4 2   
     8     3     5 2   
     9     3     6 1   
    10     6     7 ar  
    11     6     9 ar  
    12     7     8 ar  
    13     7    38 1   
    14     8    11 ar  
    15     8    40 1   
    16     9    10 ar  
    17     9    39 1   
    18    10    11 ar  
    19    10    41 1   
    20    11    12 1   
    21    12    13 ar  
    22    12    15 ar  
    23    13    14 ar  
    24    13    42 1   
    25    14    17 ar  
    26    14    43 1   
    27    15    16 ar  
    28    15    32 1   
    29    16    17 ar  
    30    16    33 1   
    31    17    18 1   
    32    18    19 1   
    33    19    20 1   
    34    19    28 1   
    35    19    44 1   
    36    20    21 1   
    37    21    22 1   
    38    21    24 1   
    39    21    45 1   
    40    22    23 1   
    41    22    46 1   
    42    22    47 1   
    43    23    49 1   
    44    24    25 1   
    45    24    26 1   
    46    24    48 1   
    47    25    50 1   
    48    26    27 1   
    49    26    28 1   
    50    26    51 1   
    51    27    34 1   
    52    28    29 1   
    53    28    35 1   
    54    29    52 1   
@<TRIPOS>SUBSTRUCTURE
     1 CWX         1 TEMP              0 ****  ****    0 ROOT
