@<TRIPOS>MOLECULE
CWY
   41    44     1     0     0
SMALL
bcc


@<TRIPOS>ATOM
      1 O1           0.0000     0.0000     0.0000 o          1 CWY      -0.556500
      2 C7           3.5260    -1.3270    -2.7470 DU         1 CWY      -0.019000
      3 O2           6.0970     2.6660    -3.0030 o          1 CWY      -0.584500
      4 C6           4.4430    -0.3260    -2.0150 cx         1 CWY      -0.556000
      5 C1           2.0950     0.0000    -1.3060 c3         1 CWY      -0.312000
      6 N1           4.1930    -2.6230    -2.8920 ns         1 CWY       0.048000
      7 C4           4.2630     1.1650    -2.3070 cx         1 CWY      -0.046000
      8 C3           3.5350     0.5130    -1.0980 cx         1 CWY      -0.111000
      9 C2           1.3420     0.0000     0.0000 c2         1 CWY       0.384000
     10 O4           2.9590    -3.1340    -4.6660 o          1 CWY      -0.448000
     11 C8           3.8360    -3.4570    -3.8880 c2         1 CWY       0.262000
     12 C9           4.5100    -4.7650    -4.0350 ca         1 CWY      -0.090000
     13 C14          4.1420    -5.6310    -5.0640 ca         1 CWY      -0.079000
     14 C13          4.7790    -6.8540    -5.1960 ca         1 CWY       0.086000
     15 O5           4.4230    -7.6990    -6.1980 os         1 CWY      -0.191000
     16 C15          5.1210    -8.9450    -6.2740 c3         1 CWY       0.055000
     17 C12          5.7790    -7.2150    -4.3040 ca         1 CWY      -0.196000
     18 C11          6.1440    -6.3580    -3.2830 ca         1 CWY      -0.065000
     19 C10          5.5220    -5.1350    -3.1460 ca         1 CWY      -0.118000
     20 C            2.2890    -1.4550    -1.8220 c3         1 CWY      -0.089000
     21 O3           5.7470     2.2800    -0.8550 o          1 CWY      -0.584500
     22 N            1.3900     0.8110    -2.3070 nz         1 CWY       0.839000
     23 O            1.9470     0.0000     1.0460 o          1 CWY      -0.556500
     24 H2           3.2340    -0.9340    -3.7130 ha         1 CWY       0.038000
     25 H4           4.1340    -0.2580    -3.0510 DU         1 CWY       0.326000
     26 H5           4.9210    -2.8850    -2.2570 hn         1 CWY       0.125000
     27 H6           3.6250     1.3910    -3.1530 hc         1 CWY       0.012000
     28 H7           3.9460     0.6330    -0.1030 hc         1 CWY       0.207000
     29 H8           3.3080    -5.3820    -5.7100 ha         1 CWY       0.137000
     30 H9           6.1790    -8.7580    -6.4120 h1         1 CWY       0.034000
     31 H10          4.9690    -9.5000    -5.3570 h1         1 CWY       0.034000
     32 H11          4.7440    -9.5190    -7.1120 h1         1 CWY       0.034000
     33 H12          6.2750    -8.1730    -4.4070 ha         1 CWY       0.115000
     34 H13          6.9270    -6.6440    -2.5920 ha         1 CWY       0.103000
     35 H14          5.8110    -4.4660    -2.3450 ha         1 CWY       0.120000
     36 H15          2.4950    -2.1290    -0.9990 hc         1 CWY       0.092000
     37 H16          1.4230    -1.7790    -2.3860 hc         1 CWY       0.092000
     38 H17          1.8110     0.6730    -3.2040 hn         1 CWY       0.011000
     39 H18          1.4500     1.7780    -2.0550 hn         1 CWY       0.011000
     40 C5           5.4230     2.0780    -2.0010 c2         1 CWY       0.426000
     41 HN3          0.4290     0.5350    -2.3430 hn         1 CWY       0.011000
@<TRIPOS>BOND
     1     1     9 1   
     2     2     4 1   
     3     2     6 1   
     4     2    20 1   
     5     2    24 1   
     6     2    25 1   
     7     3    40 1   
     8     4     7 1   
     9     4     8 1   
    10     4    25 1   
    11     5     8 1   
    12     5     9 1   
    13     5    20 1   
    14     5    22 1   
    15     6    11 1   
    16     6    26 1   
    17     7     8 1   
    18     7    27 1   
    19     7    40 1   
    20     8    28 1   
    21     9    23 1   
    22    10    11 1   
    23    11    12 1   
    24    12    13 1   
    25    12    19 1   
    26    13    14 1   
    27    13    29 1   
    28    14    15 1   
    29    14    17 1   
    30    15    16 1   
    31    16    30 1   
    32    16    31 1   
    33    16    32 1   
    34    17    18 1   
    35    17    33 1   
    36    18    19 1   
    37    18    34 1   
    38    19    35 1   
    39    20    36 1   
    40    20    37 1   
    41    21    40 1   
    42    22    38 1   
    43    22    39 1   
    44    22    41 1   
@<TRIPOS>SUBSTRUCTURE
     1 CWY         1 TEMP              0 ****  ****    0 ROOT
