@<TRIPOS>MOLECULE
molecule
   41    43     1     0     0
SMALL
bcc


@<TRIPOS>ATOM
      1 O1           0.0000     0.0000     0.0000 o          1 CWY      -0.784800
      2 C7           3.5260    -1.3270    -2.7470 c3         1 CWY       0.155700
      3 O2           6.0970     2.6660    -3.0030 o          1 CWY      -0.801800
      4 C6           4.4430    -0.3260    -2.0150 cx         1 CWY      -0.502700
      5 C1           2.0950     0.0000    -1.3060 c3         1 CWY      -0.007800
      6 N1           4.1930    -2.6230    -2.8920 ns         1 CWY      -0.540900
      7 C4           4.2630     1.1650    -2.3070 cx         1 CWY      -0.101700
      8 C3           3.5350     0.5130    -1.0980 cx         1 CWY      -0.102700
      9 C2           1.3420     0.0000     0.0000 c          1 CWY       0.884600
     10 O4           2.9590    -3.1340    -4.6660 o          1 CWY      -0.638100
     11 C8           3.8360    -3.4570    -3.8880 c          1 CWY       0.670700
     12 C9           4.5100    -4.7650    -4.0350 ca         1 CWY      -0.106600
     13 C14          4.1420    -5.6310    -5.0640 ca         1 CWY      -0.100000
     14 C13          4.7790    -6.8540    -5.1960 ca         1 CWY       0.123100
     15 O5           4.4230    -7.6990    -6.1980 os         1 CWY      -0.328900
     16 C15          5.1210    -8.9450    -6.2740 c3         1 CWY       0.130700
     17 C12          5.7790    -7.2150    -4.3040 ca         1 CWY      -0.205000
     18 C11          6.1440    -6.3580    -3.2830 ca         1 CWY      -0.100000
     19 C10          5.5220    -5.1350    -3.1460 ca         1 CWY      -0.134000
     20 C            2.2890    -1.4550    -1.8220 c3         1 CWY      -0.079400
     21 O3           5.7470     2.2800    -0.8550 o          1 CWY      -0.801800
     22 N            1.3900     0.8110    -2.3070 nz         1 CWY      -0.787600
     23 O            1.9470     0.0000     1.0460 o          1 CWY      -0.784800
     24 H2           3.2340    -0.9340    -3.7130 h1         1 CWY       0.013700
     25 H4           4.1340    -0.2580    -3.0510 hc         1 CWY       0.290700
     26 H5           4.9210    -2.8850    -2.2570 hn         1 CWY       0.350500
     27 H6           3.6250     1.3910    -3.1530 hc         1 CWY      -0.008300
     28 H7           3.9460     0.6330    -0.1030 hc         1 CWY       0.196700
     29 H8           3.3080    -5.3820    -5.7100 ha         1 CWY       0.166000
     30 H9           6.1790    -8.7580    -6.4120 h1         1 CWY       0.039033
     31 H10          4.9690    -9.5000    -5.3570 h1         1 CWY       0.039033
     32 H11          4.7440    -9.5190    -7.1120 h1         1 CWY       0.039033
     33 H12          6.2750    -8.1730    -4.4070 ha         1 CWY       0.131000
     34 H13          6.9270    -6.6440    -2.5920 ha         1 CWY       0.133000
     35 H14          5.8110    -4.4660    -2.3450 ha         1 CWY       0.143000
     36 H15          2.4950    -2.1290    -0.9990 hc         1 CWY       0.086200
     37 H16          1.4230    -1.7790    -2.3860 hc         1 CWY       0.086200
     38 H17          1.8110     0.6730    -3.2040 hn         1 CWY       0.437800
     39 H18          1.4500     1.7780    -2.0550 hn         1 CWY       0.437800
     40 C5           5.4230     2.0780    -2.0010 c          1 CWY       0.924600
     41 HN3          0.4290     0.5350    -2.3430 hn         1 CWY       0.437800
@<TRIPOS>BOND
     1    23     9 1
     2     9     1 1
     3     9     5 1
     4    22     5 1
     5     5    20 1
     6     5     8 1
     7    20     2 1
     8     8     7 1
     9     8     4 1
    10    18    19 ar
    11    18    17 ar
    12     7     4 1
    13     7    40 1
    14    19    12 ar
    15     2     6 1
    16     2     4 1
    17     6    11 1
    18    40    21 1
    19    40     3 1
    20    17    14 ar
    21    12    11 1
    22    12    13 ar
    23    11    10 2
    24    14    13 ar
    25    14    15 1
    26    15    16 1
    27     2    24 1
    28     4    25 1
    29     6    26 1
    30     7    27 1
    31     8    28 1
    32    13    29 1
    33    16    30 1
    34    16    31 1
    35    16    32 1
    36    17    33 1
    37    18    34 1
    38    19    35 1
    39    20    36 1
    40    20    37 1
    41    22    38 1
    42    22    39 1
    43    41    22 1
@<TRIPOS>SUBSTRUCTURE
     1 CWY         1 TEMP              0 ****  ****    0 ROOT
