@<TRIPOS>MOLECULE
CWZ
   60    64     1     0     0
SMALL
bcc


@<TRIPOS>ATOM
      1 C26          0.0000     0.0000     0.0000 ca         1 CWZ      -0.077000
      2 C18          1.3810     0.0000     0.0000 ca         1 CWZ      -0.093300
      3 C19          2.1320    -0.0020    -1.3060 c3         1 CWZ       0.214100
      4 N2           2.3770     1.3830    -1.7320 n3         1 CWZ      -0.539600
      5 C25          3.2910     2.0670    -0.8010 c3         1 CWZ       0.250100
      6 C24          3.6090     3.4310    -1.3630 cc         1 CWZ      -0.111700
      7 S            4.3210     4.7870    -0.4990 ss         1 CWZ      -0.315300
      8 C23          4.2510     5.7370    -1.9180 cc         1 CWZ       0.461300
      9 N3           3.7450     5.0540    -2.8860 nd         1 CWZ      -0.549000
     10 C22          3.3840     3.8060    -2.6370 cd         1 CWZ       0.326600
     11 C21          2.7750     2.8530    -3.6560 c3         1 CWZ      -0.028700
     12 C20          2.8960     1.4280    -3.1060 c3         1 CWZ       0.147800
     13 C17          2.0750     0.0000     1.1960 ca         1 CWZ      -0.105000
     14 C16          1.3910     0.0020     2.3990 ca         1 CWZ      -0.096000
     15 C15          0.0120     0.0010     2.4110 ca         1 CWZ      -0.098000
     16 C14         -0.6930     0.0010     1.2090 cp         1 CWZ      -0.028000
     17 C12         -2.1770     0.0010     1.2150 cp         1 CWZ      -0.031000
     18 C11         -2.8820     0.0010     0.0130 ca         1 CWZ      -0.097000
     19 C10         -4.2630     0.0020     0.0250 ca         1 CWZ      -0.097000
     20 C9          -4.9460     0.0020     1.2290 ca         1 CWZ      -0.098000
     21 C13         -2.8710    -0.0030     2.4230 ca         1 CWZ      -0.076000
     22 C8          -4.2510     0.0030     2.4240 ca         1 CWZ      -0.094300
     23 C7          -5.0040     0.0040     3.7300 c3         1 CWZ       0.204100
     24 N1          -5.2480    -1.3810     4.1550 n7         1 CWZ      -0.584200
     25 C           -5.9800    -1.4190     5.4280 c3         1 CWZ       0.143800
     26 C1          -6.2160    -2.8730     5.8380 c3         1 CWZ       0.035900
     27 C2          -6.9670    -2.9130     7.1430 ca         1 CWZ      -0.210600
     28 C6          -8.3490    -2.9310     7.1560 ca         1 CWZ       0.405200
     29 N           -9.0140    -2.9650     8.2940 nb         1 CWZ      -0.580000
     30 C5          -8.3940    -2.9830     9.4570 ca         1 CWZ       0.399200
     31 C4          -7.0140    -2.9660     9.5250 ca         1 CWZ      -0.219300
     32 C3          -6.2810    -2.9370     8.3480 ca         1 CWZ      -0.065000
     33 H26         -0.5430    -0.0000    -0.9370 ha         1 CWZ       0.117000
     34 H191         1.5450    -0.5130    -2.0600 h1         1 CWZ       0.013700
     35 H192         3.0790    -0.5130    -1.1780 h1         1 CWZ       0.013700
     36 H17          3.1580     0.0000     1.1910 ha         1 CWZ       0.104000
     37 H251         2.7790     2.1990     0.1440 h1         1 CWZ       0.031200
     38 H252         4.2110     1.4970    -0.7470 h1         1 CWZ       0.031200
     39 H201         2.3220     0.7530    -3.7290 h1         1 CWZ       0.012200
     40 H202         3.9370     1.1300    -3.1060 h1         1 CWZ       0.012200
     41 H23          4.5860     6.7640    -1.9930 h5         1 CWZ       0.024100
     42 H211         3.3140     2.9280    -4.5930 hc         1 CWZ       0.031200
     43 H212         1.7310     3.0980    -3.8070 hc         1 CWZ       0.031200
     44 H16          1.9400     0.0020     3.3330 ha         1 CWZ       0.103000
     45 H15         -0.5230     0.0020     3.3530 ha         1 CWZ       0.113000
     46 H11         -2.3480     0.0010    -0.9290 ha         1 CWZ       0.112000
     47 H13         -2.3280    -0.0030     3.3610 ha         1 CWZ       0.117000
     48 H10         -4.8120     0.0010    -0.9080 ha         1 CWZ       0.103000
     49 H9          -6.0290     0.0050     1.2340 ha         1 CWZ       0.102000
     50 H71C        -4.4180     0.5150     4.4840 h1         1 CWZ       0.009700
     51 H72C        -5.9510     0.5150     3.6010 h1         1 CWZ       0.009700
     52 H1          -5.7770    -1.8570     3.4520 hn         1 CWZ       0.256800
     53 HC1         -6.9330    -0.9170     5.3120 h1         1 CWZ       0.009200
     54 HC2         -5.4000    -0.9180     6.1940 h1         1 CWZ       0.009200
     55 H11C        -5.2630    -3.3750     5.9550 hc         1 CWZ       0.025200
     56 H12C        -6.7960    -3.3750     5.0720 hc         1 CWZ       0.025200
     57 H6          -8.8930    -2.9160     6.2190 h4         1 CWZ      -0.018900
     58 H3          -5.1980    -2.9230     8.3690 ha         1 CWZ       0.113000
     59 H5          -8.9750    -3.0090    10.3720 h4         1 CWZ      -0.020900
     60 H4          -6.5110    -2.9840    10.4840 ha         1 CWZ       0.113000
@<TRIPOS>BOND
     1     1     2 ar  
     2     1    16 ar  
     3     1    33 1   
     4     2     3 1   
     5     2    13 ar  
     6     3     4 1   
     7     3    34 1   
     8     3    35 1   
     9     4     5 1   
    10     4    12 1   
    11     5     6 1   
    12     5    37 1   
    13     5    38 1   
    14     6     7 1   
    15     6    10 2   
    16     7     8 1   
    17     8     9 2   
    18     8    41 1   
    19     9    10 1   
    20    10    11 1   
    21    11    12 1   
    22    11    42 1   
    23    11    43 1   
    24    12    39 1   
    25    12    40 1   
    26    13    14 ar  
    27    13    36 1   
    28    14    15 ar  
    29    14    44 1   
    30    15    16 ar  
    31    15    45 1   
    32    16    17 1   
    33    17    18 ar  
    34    17    21 ar  
    35    18    19 ar  
    36    18    46 1   
    37    19    20 ar  
    38    19    48 1   
    39    20    22 ar  
    40    20    49 1   
    41    21    22 ar  
    42    21    47 1   
    43    22    23 1   
    44    23    24 1   
    45    23    50 1   
    46    23    51 1   
    47    24    25 1   
    48    24    52 1   
    49    25    26 1   
    50    25    53 1   
    51    25    54 1   
    52    26    27 1   
    53    26    55 1   
    54    26    56 1   
    55    27    28 ar  
    56    27    32 ar  
    57    28    29 ar  
    58    28    57 1   
    59    29    30 ar  
    60    30    31 ar  
    61    30    59 1   
    62    31    32 ar  
    63    31    60 1   
    64    32    58 1   
@<TRIPOS>SUBSTRUCTURE
     1 CWZ         1 TEMP              0 ****  ****    0 ROOT
