@<TRIPOS>MOLECULE
CX1
   79    82     1     0     0
SMALL
bcc


@<TRIPOS>ATOM
      1 C40          0.0000     0.0000     0.0000 ca         1 CX1      -0.082000
      2 C41          1.3810     0.0000     0.0000 ca         1 CX1      -0.138500
      3 C42          2.0740     0.0000     1.2020 ca         1 CX1       0.104100
      4 O47          3.4330    -0.0000     1.2050 oh         1 CX1      -0.499100
      5 C43          1.3770    -0.0000     2.4020 ca         1 CX1      -0.138500
      6 C44         -0.0040     0.0000     2.3960 ca         1 CX1      -0.082000
      7 C39         -0.6920     0.0010     1.1970 ca         1 CX1      -0.091300
      8 C24         -2.2000     0.0010     1.1940 c3         1 CX1       0.029900
      9 C23         -2.7100    -1.4410     1.1920 c3         1 CX1      -0.097300
     10 C25         -4.2120    -1.4410     1.3140 c          1 CX1       0.976600
     11 O26         -4.8000    -0.8910     2.3870 o          1 CX1      -0.888800
     12 O27         -4.8890    -1.9380     0.4440 o          1 CX1      -0.888800
     13 N22         -2.3210    -2.0960    -0.0590 ns         1 CX1      -0.123900
     14 C20         -2.1950    -3.4370    -0.1060 c          1 CX1       0.557100
     15 O21         -2.4030    -4.1010     0.8860 o          1 CX1      -0.650100
     16 C18         -1.7940    -4.1100    -1.3940 c3         1 CX1      -0.103300
     17 C19         -2.8280    -3.7980    -2.4770 c3         1 CX1       0.009900
     18 C33         -2.3390    -4.3180    -3.8030 ca         1 CX1      -0.088300
     19 C34         -2.6520    -5.6070    -4.1970 ca         1 CX1      -0.099500
     20 C35         -2.2040    -6.0850    -5.4140 ca         1 CX1      -0.102000
     21 C36         -1.4420    -5.2750    -6.2370 ca         1 CX1      -0.116000
     22 C37         -1.1310    -3.9870    -5.8430 ca         1 CX1      -0.102000
     23 C38         -1.5840    -3.5080    -4.6290 ca         1 CX1      -0.099500
     24 N16         -1.7270    -5.5590    -1.1860 n          1 CX1      -0.076800
     25 C17         -2.9500    -6.3180    -0.9150 c3         1 CX1       0.068300
     26 C14         -0.5390    -6.1940    -1.2440 c          1 CX1       0.577100
     27 O15         -0.4950    -7.4050    -1.1870 o          1 CX1      -0.679100
     28 C12          0.7340    -5.3990    -1.3800 c3         1 CX1      -0.051300
     29 C13          0.7920    -4.7620    -2.7690 c3         1 CX1      -0.084700
     30 C28          1.9790    -3.8360    -2.8480 cc         1 CX1       0.299600
     31 C29          2.9600    -3.8840    -3.7690 cd         1 CX1      -0.459600
     32 N30          3.8300    -2.8690    -3.4740 na         1 CX1       0.233100
     33 C31          3.3490    -2.2360    -2.3830 cd         1 CX1       0.213400
     34 N32          2.2390    -2.8170    -2.0170 nc         1 CX1      -0.560000
     35 N10          1.8860    -6.2880    -1.2020 ns         1 CX1      -0.142900
     36 C9           3.0640    -5.7870    -0.7800 c          1 CX1       0.660100
     37 O11          3.1720    -4.5990    -0.5490 o          1 CX1      -0.645000
     38 O8           4.1220    -6.6040    -0.6180 os         1 CX1      -0.424900
     39 C7           5.3600    -5.9960    -0.1620 c3         1 CX1       0.298700
     40 C5           6.4230    -7.0560    -0.0370 ca         1 CX1      -0.107300
     41 C6           7.2360    -7.3500    -1.1180 ca         1 CX1      -0.075500
     42 C1           8.2110    -8.3220    -1.0030 ca         1 CX1      -0.110000
     43 C2           8.3750    -9.0010     0.1900 ca         1 CX1      -0.100000
     44 C3           7.5640    -8.7070     1.2700 ca         1 CX1      -0.110000
     45 C4           6.5920    -7.7310     1.1570 ca         1 CX1      -0.075500
     46 H40         -0.5410     0.0000    -0.9380 ha         1 CX1       0.107500
     47 H41          1.9240    -0.0010    -0.9380 ha         1 CX1       0.104500
     48 HO47         3.7470     0.8220     1.5430 ho         1 CX1       0.385000
     49 H43          1.9160    -0.0000     3.3420 ha         1 CX1       0.104500
     50 H44         -0.5490     0.0000     3.3330 ha         1 CX1       0.107500
     51 H24         -2.5630     0.5120     2.0780 hc         1 CX1       0.033700
     52 H24A        -2.5590     0.5130     0.3090 hc         1 CX1       0.033700
     53 H23         -2.2800    -1.9770     2.0290 h1         1 CX1       0.062700
     54 HN22        -2.1700    -1.5490    -0.8830 hn         1 CX1       0.155500
     55 H18         -0.8230    -3.7450    -1.7050 h1         1 CX1       0.083700
     56 H19         -3.7680    -4.2740    -2.2260 hc         1 CX1       0.048700
     57 H19A        -2.9720    -2.7260    -2.5400 hc         1 CX1       0.048700
     58 H34         -3.2490    -6.2410    -3.5530 ha         1 CX1       0.115000
     59 H35         -2.4480    -7.0940    -5.7230 ha         1 CX1       0.098500
     60 H36         -1.0890    -5.6510    -7.1900 ha         1 CX1       0.095000
     61 H37         -0.5360    -3.3520    -6.4880 ha         1 CX1       0.098500
     62 H38         -1.3400    -2.4980    -4.3200 ha         1 CX1       0.115000
     63 H17         -3.8140    -5.7120    -1.1620 h1         1 CX1       0.023367
     64 H17A        -2.9850    -6.5840     0.1350 h1         1 CX1       0.023367
     65 H17B        -2.9570    -7.2190    -1.5160 h1         1 CX1       0.023367
     66 H12          0.7570    -4.6220    -0.6250 h1         1 CX1       0.095700
     67 H13          0.8880    -5.5380    -3.5190 hc         1 CX1       0.043700
     68 H13A        -0.1170    -4.2000    -2.9470 hc         1 CX1       0.043700
     69 H29          3.0450    -4.5900    -4.5860 h4         1 CX1       0.147000
     70 H31          3.8070    -1.3840    -1.8950 h5         1 CX1       0.024100
     71 HN10         1.7840    -7.2730    -1.3460 hn         1 CX1       0.194500
     72 H7           5.6790    -5.2470    -0.8760 h1         1 CX1       0.012700
     73 H7A          5.2000    -5.5300     0.8030 h1         1 CX1       0.012700
     74 H6           7.1080    -6.8180    -2.0530 ha         1 CX1       0.107500
     75 H1           8.8480    -8.5530    -1.8490 ha         1 CX1       0.099500
     76 H2           9.1380    -9.7650     0.2790 ha         1 CX1       0.097000
     77 H3           7.6940    -9.2370     2.2050 ha         1 CX1       0.099500
     78 H4           5.9560    -7.5000     2.0040 ha         1 CX1       0.107500
     79 HN30         4.6670    -2.6410    -3.9720 hn         1 CX1       0.109700
@<TRIPOS>BOND
     1     1     2 ar  
     2     1     7 ar  
     3     1    46 1   
     4     2     3 ar  
     5     2    47 1   
     6     3     4 1   
     7     3     5 ar  
     8     4    48 1   
     9     5     6 ar  
    10     5    49 1   
    11     6     7 ar  
    12     6    50 1   
    13     7     8 1   
    14     8     9 1   
    15     8    51 1   
    16     8    52 1   
    17     9    10 1   
    18     9    13 1   
    19     9    53 1   
    20    10    11 1   
    21    10    12 1   
    22    13    14 1   
    23    13    54 1   
    24    14    15 2   
    25    14    16 1   
    26    16    17 1   
    27    16    24 1   
    28    16    55 1   
    29    17    18 1   
    30    17    56 1   
    31    17    57 1   
    32    18    19 ar  
    33    18    23 ar  
    34    19    20 ar  
    35    19    58 1   
    36    20    21 ar  
    37    20    59 1   
    38    21    22 ar  
    39    21    60 1   
    40    22    23 ar  
    41    22    61 1   
    42    23    62 1   
    43    24    25 1   
    44    24    26 1   
    45    25    63 1   
    46    25    64 1   
    47    25    65 1   
    48    26    27 2   
    49    26    28 1   
    50    28    29 1   
    51    28    35 1   
    52    28    66 1   
    53    29    30 1   
    54    29    67 1   
    55    29    68 1   
    56    30    31 2   
    57    30    34 1   
    58    31    32 1   
    59    31    69 1   
    60    32    33 1   
    61    32    79 1   
    62    33    34 2   
    63    33    70 1   
    64    35    36 1   
    65    35    71 1   
    66    36    37 2   
    67    36    38 1   
    68    38    39 1   
    69    39    40 1   
    70    39    72 1   
    71    39    73 1   
    72    40    41 ar  
    73    40    45 ar  
    74    41    42 ar  
    75    41    74 1   
    76    42    43 ar  
    77    42    75 1   
    78    43    44 ar  
    79    43    76 1   
    80    44    45 ar  
    81    44    77 1   
    82    45    78 1   
@<TRIPOS>SUBSTRUCTURE
     1 CX1         1 TEMP              0 ****  ****    0 ROOT
