@<TRIPOS>MOLECULE
molecule
   79    82     1     0     0
SMALL
bcc


@<TRIPOS>ATOM
      1 C40          0.0000     0.0000     0.0000 ca         1 CX1      -0.113500
      2 C41          1.3810     0.0000     0.0000 ca         1 CX1      -0.150000
      3 C42          2.0740     0.0000     1.2020 ca         1 CX1       0.084100
      4 O47          3.4330    -0.0000     1.2050 oh         1 CX1      -0.524100
      5 C43          1.3770    -0.0000     2.4020 ca         1 CX1      -0.150000
      6 C44         -0.0040     0.0000     2.3960 ca         1 CX1      -0.113500
      7 C39         -0.6920     0.0010     1.1970 ca         1 CX1      -0.073300
      8 C24         -2.2000     0.0010     1.1940 c3         1 CX1      -0.037100
      9 C23         -2.7100    -1.4410     1.1920 c3         1 CX1       0.012700
     10 C25         -4.2120    -1.4410     1.3140 c          1 CX1       0.885600
     11 O26         -4.8000    -0.8910     2.3870 o          1 CX1      -0.838800
     12 O27         -4.8890    -1.9380     0.4440 o          1 CX1      -0.838800
     13 N22         -2.3210    -2.0960    -0.0590 ns         1 CX1      -0.541900
     14 C20         -2.1950    -3.4370    -0.1060 c          1 CX1       0.650100
     15 O21         -2.4030    -4.1010     0.8860 o          1 CX1      -0.600100
     16 C18         -1.7940    -4.1100    -1.3940 c3         1 CX1       0.010700
     17 C19         -2.8280    -3.7980    -2.4770 c3         1 CX1      -0.048100
     18 C33         -2.3390    -4.3180    -3.8030 ca         1 CX1      -0.081300
     19 C34         -2.6520    -5.6070    -4.1970 ca         1 CX1      -0.122000
     20 C35         -2.2040    -6.0850    -5.4140 ca         1 CX1      -0.131000
     21 C36         -1.4420    -5.2750    -6.2370 ca         1 CX1      -0.141000
     22 C37         -1.1310    -3.9870    -5.8430 ca         1 CX1      -0.131000
     23 C38         -1.5840    -3.5080    -4.6290 ca         1 CX1      -0.122000
     24 N16         -1.7270    -5.5590    -1.1860 n          1 CX1      -0.450800
     25 C17         -2.9500    -6.3180    -0.9150 c3         1 CX1       0.105300
     26 C14         -0.5390    -6.1940    -1.2440 c          1 CX1       0.661100
     27 O15         -0.4950    -7.4050    -1.1870 o          1 CX1      -0.632100
     28 C12          0.7340    -5.3990    -1.3800 c3         1 CX1       0.063700
     29 C13          0.7920    -4.7620    -2.7690 c3         1 CX1      -0.120700
     30 C28          1.9790    -3.8360    -2.8480 cc         1 CX1       0.327600
     31 C29          2.9600    -3.8840    -3.7690 cd         1 CX1      -0.288600
     32 N30          3.8300    -2.8690    -3.4740 na         1 CX1      -0.308900
     33 C31          3.3490    -2.2360    -2.3830 cd         1 CX1       0.404400
     34 N32          2.2390    -2.8170    -2.0170 nc         1 CX1      -0.654000
     35 N10          1.8860    -6.2880    -1.2020 ns         1 CX1      -0.553900
     36 C9           3.0640    -5.7870    -0.7800 c          1 CX1       0.739100
     37 O11          3.1720    -4.5990    -0.5490 o          1 CX1      -0.589000
     38 O8           4.1220    -6.6040    -0.6180 os         1 CX1      -0.443900
     39 C7           5.3600    -5.9960    -0.1620 c3         1 CX1       0.216700
     40 C5           6.4230    -7.0560    -0.0370 ca         1 CX1      -0.091300
     41 C6           7.2360    -7.3500    -1.1180 ca         1 CX1      -0.102500
     42 C1           8.2110    -8.3220    -1.0030 ca         1 CX1      -0.136500
     43 C2           8.3750    -9.0010     0.1900 ca         1 CX1      -0.124000
     44 C3           7.5640    -8.7070     1.2700 ca         1 CX1      -0.136500
     45 C4           6.5920    -7.7310     1.1570 ca         1 CX1      -0.102500
     46 H40         -0.5410     0.0000    -0.9380 ha         1 CX1       0.132000
     47 H41          1.9240    -0.0010    -0.9380 ha         1 CX1       0.126500
     48 HO47         3.7470     0.8220     1.5430 ho         1 CX1       0.401000
     49 H43          1.9160    -0.0000     3.3420 ha         1 CX1       0.126500
     50 H44         -0.5490     0.0000     3.3330 ha         1 CX1       0.132000
     51 H24         -2.5630     0.5120     2.0780 hc         1 CX1       0.063200
     52 H24A        -2.5590     0.5130     0.3090 hc         1 CX1       0.063200
     53 H23         -2.2800    -1.9770     2.0290 h1         1 CX1       0.081700
     54 HN22        -2.1700    -1.5490    -0.8830 hn         1 CX1       0.295500
     55 H18         -0.8230    -3.7450    -1.7050 h1         1 CX1       0.094700
     56 H19         -3.7680    -4.2740    -2.2260 hc         1 CX1       0.077200
     57 H19A        -2.9720    -2.7260    -2.5400 hc         1 CX1       0.077200
     58 H34         -3.2490    -6.2410    -3.5530 ha         1 CX1       0.137000
     59 H35         -2.4480    -7.0940    -5.7230 ha         1 CX1       0.124000
     60 H36         -1.0890    -5.6510    -7.1900 ha         1 CX1       0.119000
     61 H37         -0.5360    -3.3520    -6.4880 ha         1 CX1       0.124000
     62 H38         -1.3400    -2.4980    -4.3200 ha         1 CX1       0.137000
     63 H17         -3.8140    -5.7120    -1.1620 h1         1 CX1       0.049367
     64 H17A        -2.9850    -6.5840     0.1350 h1         1 CX1       0.049367
     65 H17B        -2.9570    -7.2190    -1.5160 h1         1 CX1       0.049367
     66 H12          0.7570    -4.6220    -0.6250 h1         1 CX1       0.122700
     67 H13          0.8880    -5.5380    -3.5190 hc         1 CX1       0.068200
     68 H13A        -0.1170    -4.2000    -2.9470 hc         1 CX1       0.068200
     69 H29          3.0450    -4.5900    -4.5860 h4         1 CX1       0.165000
     70 H31          3.8070    -1.3840    -1.8950 h5         1 CX1       0.066100
     71 HN10         1.7840    -7.2730    -1.3460 hn         1 CX1       0.338500
     72 H7           5.6790    -5.2470    -0.8760 h1         1 CX1       0.055700
     73 H7A          5.2000    -5.5300     0.8030 h1         1 CX1       0.055700
     74 H6           7.1080    -6.8180    -2.0530 ha         1 CX1       0.135500
     75 H1           8.8480    -8.5530    -1.8490 ha         1 CX1       0.126500
     76 H2           9.1380    -9.7650     0.2790 ha         1 CX1       0.124000
     77 H3           7.6940    -9.2370     2.2050 ha         1 CX1       0.126500
     78 H4           5.9560    -7.5000     2.0040 ha         1 CX1       0.135500
     79 HN30         4.6670    -2.6410    -3.9720 hn         1 CX1       0.285700
@<TRIPOS>BOND
     1     1     2 ar
     2     1     7 ar
     3     1    46 1
     4     2     3 ar
     5     2    47 1
     6     3     4 1
     7     3     5 ar
     8     4    48 1
     9     6     5 ar
    10     5    49 1
    11     7     6 ar
    12     6    50 1
    13     8     7 1
    14     9     8 1
    15     8    51 1
    16     8    52 1
    17    13     9 1
    18    10     9 1
    19     9    53 1
    20    12    10 1
    21    10    11 1
    22    14    13 1
    23    13    54 1
    24    16    14 1
    25    14    15 2
    26    17    16 1
    27    16    24 1
    28    16    55 1
    29    18    17 1
    30    17    56 1
    31    17    57 1
    32    19    18 ar
    33    23    18 ar
    34    20    19 ar
    35    19    58 1
    36    21    20 ar
    37    20    59 1
    38    21    22 ar
    39    21    60 1
    40    22    23 ar
    41    22    61 1
    42    23    62 1
    43    24    25 1
    44    24    26 1
    45    25    63 1
    46    25    64 1
    47    25    65 1
    48    27    26 2
    49    26    28 1
    50    35    28 1
    51    28    29 1
    52    28    66 1
    53    29    30 1
    54    29    67 1
    55    29    68 1
    56    34    30 1
    57    30    31 2
    58    31    32 1
    59    31    69 1
    60    33    32 1
    61    34    33 2
    62    33    70 1
    63    36    35 1
    64    35    71 1
    65    38    36 1
    66    36    37 2
    67    39    38 1
    68    40    39 1
    69    39    72 1
    70    39    73 1
    71    45    40 ar
    72    40    41 ar
    73    42    41 ar
    74    41    74 1
    75    43    42 ar
    76    42    75 1
    77    44    43 ar
    78    43    76 1
    79    44    45 ar
    80    44    77 1
    81    45    78 1
    82    32    79 1
@<TRIPOS>SUBSTRUCTURE
     1 CX1         1 TEMP              0 ****  ****    0 ROOT
