@<TRIPOS>MOLECULE
CX4
   28    30     1     0     0
SMALL
bcc


@<TRIPOS>ATOM
      1 CAF          0.0000     0.0000     0.0000 cx         1 CX4      -0.068900
      2 CAG          1.5300     0.0000     0.0000 cx         1 CX4      -0.068900
      3 CAP          0.7640     0.0000     1.3250 cx         1 CX4      -0.146700
      4 CAH          0.7640    -1.2940     2.1410 c3         1 CX4       0.202800
      5 NAK          1.4380    -1.0650     3.4210 nu         1 CX4      -0.475900
      6 C6           1.5620    -2.0940     4.3290 ca         1 CX4       0.565200
      7 C5           2.2100    -1.8930     5.5720 ca         1 CX4      -0.327600
      8 CAD          2.7520    -0.6570     5.9370 ca         1 CX4      -0.051000
      9 CAB          3.3660    -0.5230     7.1470 ca         1 CX4      -0.123000
     10 CAL          3.4600    -1.6010     8.0250 ca         1 CX4      -0.004600
     11 ClAA         4.2490    -1.3900     9.5570 cl         1 CX4      -0.022400
     12 CAE          2.9400    -2.8190     7.6990 ca         1 CX4      -0.159300
     13 C4           2.3040    -2.9910     6.4630 ca         1 CX4       0.452600
     14 N3           1.7770    -4.1680     6.0930 nb         1 CX4      -0.687000
     15 C2           1.1860    -4.2950     4.9290 ca         1 CX4       0.694900
     16 N1           1.0710    -3.2980     4.0660 nb         1 CX4      -0.742000
     17 HAF         -0.4670     0.9390    -0.2700 hc         1 CX4       0.048200
     18 HAFA        -0.4670    -0.9390    -0.2700 hc         1 CX4       0.048200
     19 HAG          1.9980     0.9390    -0.2700 hc         1 CX4       0.048200
     20 HAGA         1.9980    -0.9390    -0.2700 hc         1 CX4       0.048200
     21 HAP          0.7640     0.9480     1.8490 hc         1 CX4       0.059700
     22 HAH          1.2860    -2.0680     1.5920 h1         1 CX4       0.032200
     23 HAHA        -0.2570    -1.6070     2.3220 h1         1 CX4       0.032200
     24 HNAK         1.7880    -0.1540     3.6460 hn         1 CX4       0.301800
     25 HAD          2.6860     0.1890     5.2620 ha         1 CX4       0.102000
     26 HAB          3.7870     0.4350     7.4310 ha         1 CX4       0.116000
     27 HAE          3.0200    -3.6490     8.3910 ha         1 CX4       0.133000
     28 H2           0.7670    -5.2580     4.6640 h5         1 CX4      -0.006900
@<TRIPOS>BOND
     1     1     2 1   
     2     1     3 1   
     3     1    17 1   
     4     1    18 1   
     5     2     3 1   
     6     2    19 1   
     7     2    20 1   
     8     3     4 1   
     9     3    21 1   
    10     4     5 1   
    11     4    22 1   
    12     4    23 1   
    13     5     6 1   
    14     5    24 1   
    15     6     7 ar  
    16     6    16 ar  
    17     7     8 ar  
    18     7    13 ar  
    19     8     9 ar  
    20     8    25 1   
    21     9    10 ar  
    22     9    26 1   
    23    10    11 1   
    24    10    12 ar  
    25    12    13 ar  
    26    12    27 1   
    27    13    14 ar  
    28    14    15 ar  
    29    15    16 ar  
    30    15    28 1   
@<TRIPOS>SUBSTRUCTURE
     1 CX4         1 TEMP              0 ****  ****    0 ROOT
