@<TRIPOS>MOLECULE
CX5
   33    35     1     0     0
SMALL
bcc


@<TRIPOS>ATOM
      1 C1           0.0000     0.0000     0.0000 ca         1 CX5      -0.124300
      2 C2           1.3840     0.0000     0.0000 ca         1 CX5      -0.125600
      3 C3           2.0980     0.0000     1.2110 ca         1 CX5      -0.049000
      4 C4           1.4470    -0.0010     2.4020 ca         1 CX5      -0.138300
      5 C6           0.0400    -0.0020     2.4380 ca         1 CX5       0.270300
      6 C7          -1.9310    -0.0030     3.6100 ca         1 CX5       0.293900
      7 C8          -2.6510    -0.0010     2.4130 ca         1 CX5       0.288900
      8 C9           2.1180     0.0020    -1.2840 c          1 CX5       0.606700
      9 C11          0.7050    -1.8490    -2.0410 c3         1 CX5       0.033500
     10 C13          3.0890    -2.4060    -3.6760 c3         1 CX5      -0.040900
     11 C14          1.9000    -3.3680    -3.6240 c3         1 CX5      -0.027400
     12 C5          -0.6910     0.0050     1.2220 ca         1 CX5       0.253300
     13 N1          -0.6180    -0.0040     3.6030 nb         1 CX5      -0.534000
     14 N2          -2.0290     0.0050     1.2560 nb         1 CX5      -0.534000
     15 C10          1.2260    -3.2740    -2.2530 c3         1 CX5      -0.040900
     16 N3           1.8150    -0.9070    -2.2330 n          1 CX5      -0.143800
     17 C12          2.5890    -0.9720    -3.4810 c3         1 CX5       0.033500
     18 O1           2.9930     0.8200    -1.4830 o          1 CX5      -0.640100
     19 H1          -0.5460     0.0000    -0.9360 ha         1 CX5       0.129000
     20 H2           3.1810     0.0000     1.1930 ha         1 CX5       0.121000
     21 H3           2.0110    -0.0010     3.3270 ha         1 CX5       0.123000
     22 H4          -2.4610    -0.0080     4.5550 h4         1 CX5      -0.010900
     23 H5          -3.7340    -0.0010     2.4390 h4         1 CX5      -0.010900
     24 H7           0.3170    -1.7510    -1.0350 h1         1 CX5       0.036200
     25 H8           3.5770    -2.4900    -4.6400 hc         1 CX5       0.022200
     26 H9           3.7880    -2.6550    -2.8870 hc         1 CX5       0.022200
     27 H10          2.2490    -4.3810    -3.7850 hc         1 CX5       0.017200
     28 H11          1.1860    -3.1000    -4.3940 hc         1 CX5       0.017200
     29 H12          0.3980    -3.9710    -2.2100 hc         1 CX5       0.022200
     30 H13          1.9470    -3.5130    -1.4810 hc         1 CX5       0.022200
     31 H14          1.9570    -0.6910    -4.3150 h1         1 CX5       0.036200
     32 H15          3.4360    -0.2990    -3.4180 h1         1 CX5       0.036200
     33 H6          -0.0770    -1.6390    -2.7610 h1         1 CX5       0.036200
@<TRIPOS>BOND
     1     1     2 ar  
     2     1    12 ar  
     3     1    19 1   
     4     2     3 ar  
     5     2     8 1   
     6     3     4 ar  
     7     3    20 1   
     8     4     5 ar  
     9     4    21 1   
    10     5    12 ar  
    11     5    13 ar  
    12     6     7 ar  
    13     6    13 ar  
    14     6    22 1   
    15     7    14 ar  
    16     7    23 1   
    17     8    16 1   
    18     8    18 2   
    19     9    15 1   
    20     9    16 1   
    21     9    24 1   
    22     9    33 1   
    23    10    11 1   
    24    10    17 1   
    25    10    25 1   
    26    10    26 1   
    27    11    15 1   
    28    11    27 1   
    29    11    28 1   
    30    12    14 ar  
    31    15    29 1   
    32    15    30 1   
    33    16    17 1   
    34    17    31 1   
    35    17    32 1   
@<TRIPOS>SUBSTRUCTURE
     1 CX5         1 TEMP              0 ****  ****    0 ROOT
