@<TRIPOS>MOLECULE
molecule
   33    35     1     0     0
SMALL
bcc


@<TRIPOS>ATOM
      1 C1           0.0000     0.0000     0.0000 ca         1 CX5      -0.140300
      2 C2           1.3840     0.0000     0.0000 ca         1 CX5      -0.121600
      3 C3           2.0980     0.0000     1.2110 ca         1 CX5      -0.081000
      4 C4           1.4470    -0.0010     2.4020 ca         1 CX5      -0.162300
      5 C6           0.0400    -0.0020     2.4380 ca         1 CX5       0.308300
      6 C7          -1.9310    -0.0030     3.6100 ca         1 CX5       0.307900
      7 C8          -2.6510    -0.0010     2.4130 ca         1 CX5       0.300900
      8 C9           2.1180     0.0020    -1.2840 c          1 CX5       0.674700
      9 C11          0.7050    -1.8490    -2.0410 c3         1 CX5       0.098500
     10 C13          3.0890    -2.4060    -3.6760 c3         1 CX5      -0.099400
     11 C14          1.9000    -3.3680    -3.6240 c3         1 CX5      -0.081400
     12 C5          -0.6910     0.0050     1.2220 ca         1 CX5       0.289300
     13 N1          -0.6180    -0.0040     3.6030 nb         1 CX5      -0.641000
     14 N2          -2.0290     0.0050     1.2560 nb         1 CX5      -0.639000
     15 C10          1.2260    -3.2740    -2.2530 c3         1 CX5      -0.099400
     16 N3           1.8150    -0.9070    -2.2330 n          1 CX5      -0.484800
     17 C12          2.5890    -0.9720    -3.4810 c3         1 CX5       0.098500
     18 O1           2.9930     0.8200    -1.4830 o          1 CX5      -0.598100
     19 H1          -0.5460     0.0000    -0.9360 ha         1 CX5       0.159000
     20 H2           3.1810     0.0000     1.1930 ha         1 CX5       0.154000
     21 H3           2.0110    -0.0010     3.3270 ha         1 CX5       0.156000
     22 H4          -2.4610    -0.0080     4.5550 h4         1 CX5       0.033100
     23 H5          -3.7340    -0.0010     2.4390 h4         1 CX5       0.033100
     24 H7           0.3170    -1.7510    -1.0350 h1         1 CX5       0.060200
     25 H8           3.5770    -2.4900    -4.6400 hc         1 CX5       0.051200
     26 H9           3.7880    -2.6550    -2.8870 hc         1 CX5       0.051200
     27 H10          2.2490    -4.3810    -3.7850 hc         1 CX5       0.043700
     28 H11          1.1860    -3.1000    -4.3940 hc         1 CX5       0.043700
     29 H12          0.3980    -3.9710    -2.2100 hc         1 CX5       0.051200
     30 H13          1.9470    -3.5130    -1.4810 hc         1 CX5       0.051200
     31 H14          1.9570    -0.6910    -4.3150 h1         1 CX5       0.060200
     32 H15          3.4360    -0.2990    -3.4180 h1         1 CX5       0.060200
     33 H6          -0.0770    -1.6390    -2.7610 h1         1 CX5       0.060200
@<TRIPOS>BOND
     1    17    10 1
     2    17    16 1
     3    10    11 1
     4     6    13 ar
     5     6     7 ar
     6    13     5 ar
     7     7    14 ar
     8     5     4 ar
     9     5    12 ar
    10     4     3 ar
    11    11    15 1
    12    14    12 ar
    13    12     1 ar
    14     3     2 ar
    15    16     9 1
    16    16     8 1
    17     1     2 ar
    18     2     8 1
    19     9    15 1
    20     8    18 2
    21     1    19 1
    22     3    20 1
    23     4    21 1
    24     6    22 1
    25     7    23 1
    26     9    33 1
    27     9    24 1
    28    10    25 1
    29    10    26 1
    30    11    27 1
    31    11    28 1
    32    15    29 1
    33    15    30 1
    34    17    31 1
    35    17    32 1
@<TRIPOS>SUBSTRUCTURE
     1 CX5         1 TEMP              0 ****  ****    0 ROOT
