@<TRIPOS>MOLECULE
CX6
   31    34     1     0     0
SMALL
bcc


@<TRIPOS>ATOM
      1 O1           0.0000     0.0000     0.0000 os         1 CX6      -0.288900
      2 O2           1.7770     2.8700    -2.1610 o          1 CX6      -0.659500
      3 N1           1.9330     1.2630    -0.5700 n          1 CX6      -0.228800
      4 C1           1.4210     0.0000     0.0000 c3         1 CX6       0.244500
      5 C2           1.9360     0.0000     1.4600 c3         1 CX6      -0.049400
      6 C3           3.3290     0.6670     1.3100 c3         1 CX6      -0.046400
      7 C4           3.0960     1.7080     0.1910 c3         1 CX6       0.066000
      8 C5           1.3500     1.8570    -1.6420 c          1 CX6       0.698100
      9 C6           0.1340     1.1490    -2.1130 ca         1 CX6      -0.229600
     10 C7          -0.4740     0.2130    -1.2480 ca         1 CX6       0.151100
     11 C8          -1.5800    -0.4900    -1.6950 ca         1 CX6      -0.154000
     12 C9          -2.1000    -0.2730    -2.9710 ca         1 CX6       0.112100
     13 C10         -1.5120     0.6620    -3.8130 ca         1 CX6       0.023100
     14 C11         -0.3910     1.3630    -3.3830 ca         1 CX6      -0.010000
     15 O3          -3.1800    -1.0190    -3.3180 os         1 CX6      -0.277900
     16 O4          -1.9620     0.9450    -5.0630 os         1 CX6      -0.272900
     17 C12         -2.7950    -0.1220    -5.5050 c3         1 CX6       0.154400
     18 C13         -3.8380    -0.3960    -4.4160 c3         1 CX6       0.154400
     19 H1           1.8080    -0.8530    -0.5440 h2         1 CX6       0.024700
     20 H21          2.0330    -1.0120     1.8340 hc         1 CX6       0.036200
     21 H22          1.2910     0.5950     2.0960 hc         1 CX6       0.036200
     22 H31          4.0000    -0.0840     0.9120 hc         1 CX6       0.037200
     23 H32          3.5180     1.2190     2.2230 hc         1 CX6       0.037200
     24 H41          3.9460     1.6350    -0.4770 h1         1 CX6       0.032700
     25 H42          2.8070     2.6280     0.6830 h1         1 CX6       0.032700
     26 H8          -2.0480    -1.2180    -1.0440 ha         1 CX6       0.131000
     27 H11          0.0770     2.0830    -4.0420 ha         1 CX6       0.135000
     28 H121        -2.1960    -1.0090    -5.6680 h1         1 CX6       0.027200
     29 H122        -3.2940     0.1620    -6.4240 h1         1 CX6       0.027200
     30 H131        -4.6050    -1.0560    -4.8030 h1         1 CX6       0.028700
     31 H132        -4.2820     0.5380    -4.0920 h1         1 CX6       0.028700
@<TRIPOS>BOND
     1     1     4 1   
     2     1    10 1   
     3     2     8 2   
     4     3     4 1   
     5     3     7 1   
     6     3     8 1   
     7     4     5 1   
     8     4    19 1   
     9     5     6 1   
    10     5    20 1   
    11     5    21 1   
    12     6     7 1   
    13     6    22 1   
    14     6    23 1   
    15     7    24 1   
    16     7    25 1   
    17     8     9 1   
    18     9    10 ar  
    19     9    14 ar  
    20    10    11 ar  
    21    11    12 ar  
    22    11    26 1   
    23    12    13 ar  
    24    12    15 1   
    25    13    14 ar  
    26    13    16 1   
    27    14    27 1   
    28    15    18 1   
    29    16    17 1   
    30    17    18 1   
    31    17    28 1   
    32    17    29 1   
    33    18    30 1   
    34    18    31 1   
@<TRIPOS>SUBSTRUCTURE
     1 CX6         1 TEMP              0 ****  ****    0 ROOT
