@<TRIPOS>MOLECULE
molecule
   59    61     1     0     0
SMALL
bcc


@<TRIPOS>ATOM
      1 CAA          0.0000     0.0000     0.0000 c3         1 CX7      -0.074700
      2 CAB          1.5210     0.0000     0.0000 c3         1 CX7       0.021500
      3 CAC          2.2860     0.0000     1.3010 c2         1 CX7      -0.080400
      4 CAD          2.0540     0.3160     2.5710 c2         1 CX7      -0.138200
      5 CAE          0.6470     0.2980     3.1440 c3         1 CX7       0.019400
      6 CAF          0.0150     1.5370     2.5760 c2         1 CX7      -0.094400
      7 CAG          0.2790     2.1670     1.2260 c3         1 CX7       0.197300
      8 CAH         -0.6210     1.4070     0.2460 c3         1 CX7       0.144100
      9 CAI          2.0420    -1.3090    -0.6190 c3         1 CX7      -0.090400
     10 CAJ          3.5150    -1.3730    -0.2160 c3         1 CX7      -0.105400
     11 CAK          3.7170    -0.3790     0.9230 c3         1 CX7       0.179000
     12 CAL          0.7850     0.5540     4.6640 c3         1 CX7      -0.083400
     13 CAM         -0.3290     1.5770     4.8670 c3         1 CX7      -0.045200
     14 CAN         -0.6320     2.1680     3.5210 c2         1 CX7      -0.119400
     15 CAO         -0.0800    -1.0270     3.0130 c3         1 CX7      -0.072100
     16 CAP          4.4370    -1.0530     2.0930 c3         1 CX7       0.114400
     17 CAQ         -0.8330    -1.1960     0.2490 c3         1 CX7      -0.073100
     18 OAR         -1.9320     1.2390     0.7880 oh         1 CX7      -0.589800
     19 OAS          1.6380     2.3050     0.8660 oh         1 CX7      -0.559800
     20 OAT          4.4280     0.7790     0.4820 oh         1 CX7      -0.587800
     21 OAU          5.7690    -1.3910     1.7010 os         1 CX7      -0.441600
     22 CAV         -1.5720     3.3270     3.3190 c3         1 CX7      -0.019500
     23 CAW         -2.9610     2.9560     3.8390 c3         1 CX7      -0.085100
     24 CAX         -1.0500     4.5460     4.0830 c3         1 CX7      -0.085100
     25 CAY          6.5330    -2.0290     2.7270 c3         1 CX7       0.132700
     26 HAA         -0.1150    -0.0070    -1.0770 hc         1 CX7       0.002700
     27 HAB          1.8650     0.8310    -0.6030 hc         1 CX7       0.089700
     28 HAD          2.8840     0.5930     3.2100 ha         1 CX7       0.136000
     29 HAG         -0.1200     3.1730     1.2800 h1         1 CX7       0.022700
     30 HAH         -0.6750     1.9480    -0.6910 h1         1 CX7       0.028700
     31 HAI          1.9490    -1.2770    -1.6980 hc         1 CX7       0.044200
     32 HAIA         1.5040    -2.1570    -0.2130 hc         1 CX7       0.044200
     33 HAJ          3.7600    -2.3730     0.1210 hc         1 CX7       0.051200
     34 HAJA         4.1380    -1.0980    -1.0580 hc         1 CX7       0.051200
     35 HAL          0.5930    -0.3490     5.2310 hc         1 CX7       0.049700
     36 HALA         1.7530     0.9780     4.9020 hc         1 CX7       0.049700
     37 HAM          0.0040     2.3550     5.5440 hc         1 CX7       0.047200
     38 HAMA        -1.2110     1.0880     5.2620 hc         1 CX7       0.047200
     39 HAO         -1.1230    -0.8440     2.7840 hc         1 CX7       0.042367
     40 HAOA         0.3690    -1.6080     2.2170 hc         1 CX7       0.042367
     41 HAOB        -0.0060    -1.5740     3.9450 hc         1 CX7       0.042367
     42 HAP          4.4710    -0.3730     2.9360 h1         1 CX7       0.035700
     43 HAPA         3.9040    -1.9520     2.3760 h1         1 CX7       0.035700
     44 HAQ         -0.2030    -2.0120     0.5820 hc         1 CX7       0.041700
     45 HAQA        -1.5680    -0.9720     1.0120 hc         1 CX7       0.041700
     46 HAQB        -1.3390    -1.4800    -0.6660 hc         1 CX7       0.041700
     47 HOAR        -2.5730     1.4850     0.1420 ho         1 CX7       0.398000
     48 HOAS         1.8080     3.1970     0.6120 ho         1 CX7       0.396000
     49 HOAT         5.2560     0.5180     0.1140 ho         1 CX7       0.406000
     50 H25         -1.6330     3.5630     2.2630 hc         1 CX7       0.052700
     51 HAW         -2.9570     2.9720     4.9220 hc         1 CX7       0.034867
     52 HAWA        -3.6880     3.6680     3.4690 hc         1 CX7       0.034867
     53 HAWB        -3.2210     1.9620     3.4940 hc         1 CX7       0.034867
     54 HAX          0.0130     4.6560     3.9070 hc         1 CX7       0.034867
     55 HAXA        -1.2280     4.4110     5.1430 hc         1 CX7       0.034867
     56 H31         -1.5670     5.4350     3.7420 hc         1 CX7       0.034867
     57 HAY          6.0260    -2.9310     3.0470 h1         1 CX7       0.029700
     58 HAYA         6.6390    -1.3560     3.5700 h1         1 CX7       0.029700
     59 HAYB         7.5130    -2.2830     2.3430 h1         1 CX7       0.029700
@<TRIPOS>BOND
     1     1     2 1
     2     2     3 1
     3     2     9 1
     4     3    11 1
     5     4     3 2
     6     5     4 1
     7     5    12 1
     8     6     5 1
     9     6    14 2
    10     7     6 1
    11     7     8 1
    12     8     1 1
    13     9    10 1
    14    11    10 1
    15    11    20 1
    16    12    13 1
    17    14    13 1
    18    15     5 1
    19    16    11 1
    20    16    21 1
    21    17     1 1
    22    18     8 1
    23    19     7 1
    24    22    14 1
    25    22    24 1
    26    23    22 1
    27    25    21 1
    28     1    26 1
    29     2    27 1
    30     4    28 1
    31     7    29 1
    32     8    30 1
    33     9    31 1
    34     9    32 1
    35    10    33 1
    36    10    34 1
    37    12    35 1
    38    12    36 1
    39    13    37 1
    40    13    38 1
    41    15    39 1
    42    15    40 1
    43    15    41 1
    44    16    42 1
    45    16    43 1
    46    17    44 1
    47    17    45 1
    48    17    46 1
    49    18    47 1
    50    19    48 1
    51    20    49 1
    52    22    50 1
    53    23    51 1
    54    23    52 1
    55    23    53 1
    56    24    54 1
    57    24    55 1
    58    24    56 1
    59    25    57 1
    60    25    58 1
    61    25    59 1
@<TRIPOS>SUBSTRUCTURE
     1 CX7         1 TEMP              0 ****  ****    0 ROOT
