@<TRIPOS>MOLECULE
molecule
   46    49     1     0     0
SMALL
bcc


@<TRIPOS>ATOM
      1 O6           0.0000     0.0000     0.0000 o          1 CX9      -0.636500
      2 C6           1.2180     0.0000     0.0000 c          1 CX9       0.749100
      3 C5           1.9310     0.0000     1.2190 cc         1 CX9      -0.363200
      4 N1           1.9020    -0.0050    -1.1630 n          1 CX9      -0.465400
      5 N7           1.5720    -0.0010     2.5510 na         1 CX9      -0.136900
      6 C4           3.3200    -0.0000     1.1900 cd         1 CX9       0.500200
      7 CAA          0.2090    -0.0030     3.0870 c3         1 CX9       0.034600
      8 C8           2.7140    -0.0020     3.2670 cc         1 CX9       0.458400
      9 N9           3.7430    -0.0010     2.4570 nd         1 CX9      -0.726000
     10 N3           3.9640    -0.0010    -0.0370 n          1 CX9      -0.422300
     11 CAC          5.4270    -0.0010    -0.0950 c3         1 CX9       0.108300
     12 C2           3.2460    -0.0050    -1.1760 c          1 CX9       0.816500
     13 O2           3.8280    -0.0090    -2.2430 o          1 CX9      -0.645500
     14 CAK          1.1680    -0.0100    -2.4310 c3         1 CX9       0.118000
     15 CAL          0.9120     1.4310    -2.8780 c3         1 CX9      -0.124400
     16 CA0          0.1460     1.4250    -4.2020 c3         1 CX9       0.117000
     17 N10         -0.1000     2.8050    -4.6300 n          1 CX9      -0.470400
     18 CAP          0.8060     3.4300    -5.4140 c          1 CX9       0.634000
     19 CAR         -1.2240     3.4290    -4.2430 c          1 CX9       0.827500
     20 OAF          1.8220     2.8600    -5.7670 o          1 CX9      -0.579500
     21 CAV          0.5380     4.8080    -5.8280 cc         1 CX9       0.220800
     22 NAX          1.2010     5.7140    -6.5870 nc         1 CX9      -0.604000
     23 CAT         -0.6370     5.4100    -5.3960 cd         1 CX9      -0.051000
     24 CAJ          0.5080     6.8140    -6.6390 cd         1 CX9       0.394400
     25 NAN         -0.6390     6.6660    -5.9140 na         1 CX9      -0.303900
     26 NAZ         -1.5050     4.6930    -4.6040 n          1 CX9      -0.348000
     27 CAD         -2.7500     5.3160    -4.1480 c3         1 CX9       0.094300
     28 OAH         -2.0170     2.8290    -3.5430 o          1 CX9      -0.652500
     29 HAA          0.2470    -0.0060     4.1700 h1         1 CX9       0.065033
     30 HAAA        -0.3140     0.8830     2.7470 h1         1 CX9       0.065033
     31 HAAB        -0.3140    -0.8860     2.7410 h1         1 CX9       0.065033
     32 H8           2.7720    -0.0020     4.3490 h5         1 CX9       0.075100
     33 HAC          5.8280    -0.1140     0.9050 h1         1 CX9       0.059367
     34 HACA         5.7640    -0.8230    -0.7140 h1         1 CX9       0.059367
     35 HACB         5.7720     0.9350    -0.5180 h1         1 CX9       0.059367
     36 HAK          0.2220    -0.5200    -2.2980 h1         1 CX9       0.079700
     37 HAKA         1.7530    -0.5230    -3.1840 h1         1 CX9       0.079700
     38 HAL          0.3260     1.9450    -2.1250 hc         1 CX9       0.068700
     39 HALA         1.8580     1.9420    -3.0110 hc         1 CX9       0.068700
     40 HA0          0.7310     0.9110    -4.9550 h1         1 CX9       0.079700
     41 HA0A        -0.8010     0.9140    -4.0690 h1         1 CX9       0.079700
     42 HAJ          0.7970     7.7100    -7.1750 h5         1 CX9       0.078100
     43 HNAN        -1.3510     7.3570    -5.7870 hn         1 CX9       0.304700
     44 HAD         -3.1130     5.9970    -4.9080 h1         1 CX9       0.056033
     45 HADA        -3.4930     4.5480    -3.9660 h1         1 CX9       0.056033
     46 HADB        -2.5650     5.8630    -3.2310 h1         1 CX9       0.056033
@<TRIPOS>BOND
     1     1     2 2
     2     2     3 1
     3     2     4 1
     4     3     5 1
     5     3     6 2
     6     4    12 1
     7     4    14 1
     8     5     7 1
     9     5     8 1
    10     6     9 1
    11     6    10 1
    12     7    29 1
    13     7    30 1
    14     7    31 1
    15     8     9 2
    16     8    32 1
    17    10    11 1
    18    10    12 1
    19    11    33 1
    20    11    34 1
    21    11    35 1
    22    12    13 2
    23    14    15 1
    24    14    36 1
    25    14    37 1
    26    15    16 1
    27    15    38 1
    28    15    39 1
    29    16    17 1
    30    16    40 1
    31    16    41 1
    32    17    18 1
    33    17    19 1
    34    18    20 2
    35    18    21 1
    36    19    26 1
    37    19    28 2
    38    21    22 1
    39    21    23 2
    40    22    24 2
    41    23    25 1
    42    23    26 1
    43    24    25 1
    44    24    42 1
    45    25    43 1
    46    26    27 1
    47    27    44 1
    48    27    45 1
    49    27    46 1
@<TRIPOS>SUBSTRUCTURE
     1 CX9         1 TEMP              0 ****  ****    0 ROOT
