@<TRIPOS>MOLECULE
molecule
   28    28     1     0     0
SMALL
bcc


@<TRIPOS>ATOM
      1 C1           0.0000     0.0000     0.0000 ca         1 CXA      -0.090300
      2 C2           1.3830     0.0000     0.0000 ca         1 CXA      -0.130000
      3 C3           2.0730     0.0000     1.1970 ca         1 CXA      -0.123000
      4 C4           1.3830    -0.0030     2.3940 ca         1 CXA      -0.129000
      5 C5           0.0020    -0.0020     2.3940 ca         1 CXA      -0.123000
      6 C6          -0.6900     0.0040     1.1970 ca         1 CXA      -0.130000
      7 C12         -0.7530     0.0010    -1.3050 c3         1 CXA      -0.024100
      8 C13         -1.0070    -1.4400    -1.7480 c3         1 CXA       0.111500
      9 C14         -1.7610    -1.4380    -3.0530 c          1 CXA       0.853600
     10 O15         -1.0900    -1.4370    -4.2150 o          1 CXA      -0.799800
     11 O16         -2.9690    -1.4390    -3.0530 o          1 CXA      -0.799800
     12 N17          0.2720    -2.1300    -1.9240 n7         1 CXA      -0.825100
     13 S18          0.6180    -3.4770    -1.0260 s6         1 CXA       1.339800
     14 N19         -0.5400    -4.6100    -1.3680 nz         1 CXA      -0.814500
     15 O20          0.4030    -3.1030     0.3270 o          1 CXA      -0.559300
     16 O21          1.8320    -3.9930    -1.5540 o          1 CXA      -0.559300
     17 HC2          1.9240     0.0610    -0.9370 ha         1 CXA       0.130000
     18 HC3          3.1560     0.0160     1.1970 ha         1 CXA       0.126500
     19 HC4          1.9250     0.0300     3.3310 ha         1 CXA       0.127000
     20 HC5         -0.5400     0.0020     3.3320 ha         1 CXA       0.126500
     21 HC6         -1.7730     0.0500     1.1980 ha         1 CXA       0.130000
     22 H121        -1.7000     0.5110    -1.1750 hc         1 CXA       0.079700
     23 H122        -0.1680     0.5130    -2.0590 hc         1 CXA       0.079700
     24 HC13        -1.5920    -1.9510    -0.9940 h1         1 CXA       0.031700
     25 HN17         0.9260    -1.8030    -2.6070 hn         1 CXA       0.503800
     26 H191        -0.2300    -5.5080    -1.0550 hn         1 CXA       0.489133
     27 H192        -0.6980    -4.6370    -2.3560 hn         1 CXA       0.489133
     28 H193        -1.3910    -4.3690    -0.9000 hn         1 CXA       0.489133
@<TRIPOS>BOND
     1     1     2 ar
     2     1     6 ar
     3     1     7 1
     4     2     3 ar
     5     2    17 1
     6     3     4 ar
     7     3    18 1
     8     4     5 ar
     9     4    19 1
    10     5     6 ar
    11     5    20 1
    12     6    21 1
    13     7     8 1
    14     7    22 1
    15     7    23 1
    16     8     9 1
    17     8    12 1
    18     8    24 1
    19     9    10 1
    20     9    11 1
    21    12    13 1
    22    12    25 1
    23    13    14 1
    24    13    15 2
    25    13    16 2
    26    14    26 1
    27    14    27 1
    28    28    14 1
@<TRIPOS>SUBSTRUCTURE
     1 CXA         1 TEMP              0 ****  ****    0 ROOT
