@<TRIPOS>MOLECULE
CXD
   38    42     1     0     0
SMALL
bcc


@<TRIPOS>ATOM
      1 F01          0.0000     0.0000     0.0000 f          1 CXD      -0.076000
      2 C02          1.3510     0.0000     0.0000 ca         1 CXD       0.092000
      3 C03          2.0440     0.0000     1.1980 ca         1 CXD      -0.139000
      4 C04          1.2910    -0.0010     2.5030 c3         1 CXD      -0.089000
      5 N05          0.8390    -1.3610     2.8050 ny         1 CXD      -0.235000
      6 C06          0.1400    -1.6040     3.9320 c3         1 CXD       0.463000
      7 O07         -0.1160    -0.6930     4.6980 o          1 CXD      -0.431000
      8 C08         -0.3130    -2.9650     4.2350 c2         1 CXD      -0.418000
      9 N09         -0.1030    -4.0980     3.4710 na         1 CXD       0.395000
     10 C10         -0.6850    -5.1240     4.1180 c2         1 CXD      -0.241000
     11 N11         -1.2310    -4.6820     5.2220 n2         1 CXD      -0.087000
     12 C12         -1.0210    -3.3690     5.3340 c2         1 CXD      -0.093000
     13 Cl1         -1.5550    -2.3550     6.6380 cl         1 CXD       0.163000
     14 C14          3.4260    -0.0010     1.1980 ca         1 CXD      -0.042000
     15 C15          4.1200    -0.0000     0.0010 ca         1 CXD      -0.101000
     16 C16          3.4340     0.0000    -1.1980 ca         1 CXD      -0.114000
     17 Cl2          4.3070     0.0010    -2.6990 cl         1 CXD       0.106000
     18 C18          2.0460    -0.0050    -1.2020 ca         1 CXD       0.025000
     19 O19          1.3680    -0.0090    -2.3810 os         1 CXD      -0.110000
     20 C20          1.0510     1.1890    -2.9390 ca         1 CXD       0.105000
     21 C21          1.4180     2.3680    -2.3050 ca         1 CXD      -0.182000
     22 C22          1.0960     3.5900    -2.8690 ca         1 CXD      -0.075000
     23 Cl3          1.5590     5.0600    -2.0680 cl         1 CXD       0.075000
     24 C24          0.4090     3.6440    -4.0650 ca         1 CXD      -0.108000
     25 C25          0.0360     2.4640    -4.7090 ca         1 CXD       0.085000
     26 C28          0.3650     1.2320    -4.1420 ca         1 CXD      -0.106000
     27 C26         -0.6770     2.5170    -5.9500 c1         1 CXD      -0.106000
     28 N27         -1.2430     2.5390    -6.9340 n1         1 CXD      -0.039000
     29 H041         0.2550    -0.2580     2.3220 hx         1 CXD       0.201000
     30 H042         1.7320    -0.7290     3.1730 DU         1 CXD       0.180000
     31 H14          3.9680    -0.0010     2.1360 ha         1 CXD       0.117000
     32 H05          0.7630    -1.6630     3.7560 DU         1 CXD       0.016000
     33 H09          0.3910    -4.1380     2.6010 hn         1 CXD       0.083000
     34 H10         -0.7060    -6.1550     3.7880 h5         1 CXD       0.165000
     35 H15          5.2040    -0.0010     0.0030 ha         1 CXD       0.126000
     36 H21          1.9120     2.3330    -1.3420 ha         1 CXD       0.136000
     37 H28          0.0820     0.3110    -4.6370 ha         1 CXD       0.130000
     38 H24          0.1590     4.6030    -4.5030 ha         1 CXD       0.129000
@<TRIPOS>BOND
     1     1     2 1   
     2     2     3 1   
     3     2    18 1   
     4     3     4 1   
     5     3    14 1   
     6     4     5 1   
     7     4    29 1   
     8     4    30 1   
     9     5     6 1   
    10     5    30 1   
    11     5    32 1   
    12     6     7 1   
    13     6     8 1   
    14     6    32 1   
    15     8     9 1   
    16     8    12 1   
    17     9    10 1   
    18     9    33 1   
    19    10    11 1   
    20    10    34 1   
    21    11    12 1   
    22    12    13 1   
    23    14    15 1   
    24    14    31 1   
    25    15    16 1   
    26    15    35 1   
    27    16    17 1   
    28    16    18 1   
    29    18    19 1   
    30    19    20 1   
    31    20    21 1   
    32    20    26 1   
    33    21    22 1   
    34    21    36 1   
    35    22    23 1   
    36    22    24 1   
    37    24    25 1   
    38    24    38 1   
    39    25    26 1   
    40    25    27 1   
    41    26    37 1   
    42    27    28 1   
@<TRIPOS>SUBSTRUCTURE
     1 CXD         1 TEMP              0 ****  ****    0 ROOT
