@<TRIPOS>MOLECULE
molecule
   38    40     1     0     0
SMALL
bcc


@<TRIPOS>ATOM
      1 F01          0.0000     0.0000     0.0000 f          1 CXD      -0.114900
      2 C02          1.3510     0.0000     0.0000 ca         1 CXD       0.156900
      3 C03          2.0440     0.0000     1.1980 ca         1 CXD      -0.138300
      4 C04          1.2910    -0.0010     2.5030 c3         1 CXD      -0.016700
      5 N05          0.8390    -1.3610     2.8050 ns         1 CXD      -0.575900
      6 C06          0.1400    -1.6040     3.9320 c          1 CXD       0.681700
      7 O07         -0.1160    -0.6930     4.6980 o          1 CXD      -0.619100
      8 C08         -0.3130    -2.9650     4.2350 cc         1 CXD      -0.323200
      9 N09         -0.1030    -4.0980     3.4710 na         1 CXD      -0.277900
     10 C10         -0.6850    -5.1240     4.1180 cc         1 CXD       0.448400
     11 N11         -1.2310    -4.6820     5.2220 nd         1 CXD      -0.697000
     12 C12         -1.0210    -3.3690     5.3340 cd         1 CXD       0.505300
     13 Cl1         -1.5550    -2.3550     6.6380 cl         1 CXD      -0.089000
     14 C14          3.4260    -0.0010     1.1980 ca         1 CXD      -0.072000
     15 C15          4.1200    -0.0000     0.0010 ca         1 CXD      -0.132000
     16 C16          3.4340     0.0000    -1.1980 ca         1 CXD       0.047400
     17 Cl2          4.3070     0.0010    -2.6990 cl         1 CXD      -0.061400
     18 C18          2.0460    -0.0050    -1.2020 ca         1 CXD       0.056100
     19 O19          1.3680    -0.0090    -2.3810 os         1 CXD      -0.223200
     20 C20          1.0510     1.1890    -2.9390 ca         1 CXD       0.140100
     21 C21          1.4180     2.3680    -2.3050 ca         1 CXD      -0.183000
     22 C22          1.0960     3.5900    -2.8690 ca         1 CXD       0.060400
     23 Cl3          1.5590     5.0600    -2.0680 cl         1 CXD      -0.086400
     24 C24          0.4090     3.6440    -4.0650 ca         1 CXD      -0.118000
     25 C25          0.0360     2.4640    -4.7090 ca         1 CXD       0.027000
     26 C28          0.3650     1.2320    -4.1420 ca         1 CXD      -0.113000
     27 C26         -0.6770     2.5170    -5.9500 cg         1 CXD       0.237800
     28 N27         -1.2430     2.5390    -6.9340 n1         1 CXD      -0.343800
     29 H041         0.2550    -0.2580     2.3220 h1         1 CXD       0.204200
     30 H042         1.7320    -0.7290     3.1730 h1         1 CXD       0.204200
     31 H14          3.9680    -0.0010     2.1360 ha         1 CXD       0.152000
     32 H05          0.7630    -1.6630     3.7560 hn         1 CXD       0.229500
     33 H09          0.3910    -4.1380     2.6010 hn         1 CXD       0.318700
     34 H10         -0.7060    -6.1550     3.7880 h5         1 CXD       0.078100
     35 H15          5.2040    -0.0010     0.0030 ha         1 CXD       0.160000
     36 H21          1.9120     2.3330    -1.3420 ha         1 CXD       0.158000
     37 H28          0.0820     0.3110    -4.6370 ha         1 CXD       0.162000
     38 H24          0.1590     4.6030    -4.5030 ha         1 CXD       0.159000
@<TRIPOS>BOND
     1     1     2 1
     2     2     3 ar
     3     2    18 ar
     4     3     4 1
     5     3    14 ar
     6     4     5 1
     7     5     6 1
     8     6     7 2
     9     6     8 1
    10     8     9 1
    11     8    12 2
    12     9    10 1
    13    10    11 2
    14    11    12 1
    15    12    13 1
    16    14    15 ar
    17    15    16 ar
    18    16    17 1
    19    16    18 ar
    20    18    19 1
    21    19    20 1
    22    20    21 ar
    23    20    26 ar
    24    21    22 ar
    25    22    23 1
    26    22    24 ar
    27    24    25 ar
    28    25    26 ar
    29    25    27 1
    30    27    28 3
    31     4    29 1
    32     4    30 1
    33    14    31 1
    34     5    32 1
    35     9    33 1
    36    10    34 1
    37    15    35 1
    38    21    36 1
    39    26    37 1
    40    24    38 1
@<TRIPOS>SUBSTRUCTURE
     1 CXD         1 TEMP              0 ****  ****    0 ROOT
