@<TRIPOS>MOLECULE
CXE
   68    67     1     0     0
SMALL
bcc


@<TRIPOS>ATOM
      1 C1          0.3340   -1.4770   -0.9190 c3        1 CXE     -0.092100
      2 C2          1.7730   -1.0750   -0.7210 c3        1 CXE     -0.080400
      3 C3          2.2710   -1.4570    0.6570 c3        1 CXE     -0.079400
      4 C4          3.7170   -1.0520    0.8520 c3        1 CXE     -0.079400
      5 C5          4.2140   -1.4340    2.2300 c3        1 CXE     -0.079400
      6 C6          5.6600   -1.0310    2.4240 c3        1 CXE     -0.079400
      7 C7          6.1560   -1.4120    3.8020 c3        1 CXE     -0.078400
      8 C8          7.6020   -1.0090    3.9960 c3        1 CXE     -0.078400
      9 C9          8.0930   -1.3910    5.3740 c3        1 CXE     -0.083400
     10 C10         9.5440   -0.9800    5.5530 c3        1 CXE      0.132400
     11 O11         9.9200   -1.3720    6.8720 os        1 CXE     -0.428600
     12 C12        11.2790   -1.0540    7.1620 c3        1 CXE      0.126400
     13 C13        11.4880   -1.3630    8.6410 c3        1 CXE      0.126400
     14 O14        11.7030   -0.1110    9.2890 os        1 CXE     -0.433600
     15 C15        11.7550   -0.2370   10.7080 c3        1 CXE      0.094400
     16 C16        12.0440    1.1520   11.2700 c3        1 CXE      0.131400
     17 O17        10.8500    1.8570   11.5720 os        1 CXE     -0.427600
     18 C18        10.2160    2.4070   10.4160 c3        1 CXE      0.120400
     19 C19         8.8690    2.9380   10.8990 c3        1 CXE      0.128400
     20 O20         8.3640    3.7430    9.8360 os        1 CXE     -0.426600
     21 C21         7.0890    4.3000   10.1470 c3        1 CXE      0.128400
     22 C22         6.7290    5.2250    8.9890 c3        1 CXE      0.128400
     23 O23         6.8900    6.5580    9.4700 os        1 CXE     -0.436600
     24 C24         6.6920    7.5330    8.4480 c3        1 CXE      0.086400
     25 C25         6.9780    8.8850    9.0940 c3        1 CXE      0.132400
     26 O26         8.3440    9.0290    9.4190 oh        1 CXE     -0.600800
     27 H011       -0.3220   -0.9750   -0.1680 hc        1 CXE      0.032700
     28 H012       -0.0120   -1.1870   -1.9400 hc        1 CXE      0.032700
     29 H013        0.2140   -2.5820   -0.8060 hc        1 CXE      0.032700
     30 H021        1.8780    0.0330   -0.8620 hc        1 CXE      0.038700
     31 H022        2.4130   -1.5690   -1.4990 hc        1 CXE      0.038700
     32 H031        1.6340   -0.9620    1.4370 hc        1 CXE      0.039700
     33 H032        2.1680   -2.5650    0.8000 hc        1 CXE      0.039700
     34 H041        4.3540   -1.5470    0.0720 hc        1 CXE      0.039700
     35 H042        3.8200    0.0560    0.7080 hc        1 CXE      0.039700
     36 H051        3.5770   -0.9390    3.0100 hc        1 CXE      0.039700
     37 H052        4.1090   -2.5420    2.3740 hc        1 CXE      0.039700
     38 H061        6.2960   -1.5270    1.6440 hc        1 CXE      0.039700
     39 H062        5.7640    0.0770    2.2790 hc        1 CXE      0.039700
     40 H071        5.5200   -0.9160    4.5820 hc        1 CXE      0.041700
     41 H072        6.0510   -2.5200    3.9470 hc        1 CXE      0.041700
     42 H081        8.2380   -1.5070    3.2160 hc        1 CXE      0.040200
     43 H082        7.7060    0.0990    3.8500 hc        1 CXE      0.040200
     44 H091        7.4680   -0.8930    6.1610 hc        1 CXE      0.054700
     45 H092        7.9990   -2.4970    5.5280 hc        1 CXE      0.054700
     46 H101       10.2040   -1.4960    4.8050 h1        1 CXE      0.026700
     47 H102        9.6650    0.1310    5.4410 h1        1 CXE      0.026700
     48 H121       11.9500   -1.6920    6.5280 h1        1 CXE      0.042700
     49 H122       11.4800    0.0300    6.9490 h1        1 CXE      0.042700
     50 H131       12.3920   -2.0110    8.7850 h1        1 CXE      0.043700
     51 H132       10.5860   -1.8750    9.0720 h1        1 CXE      0.043700
     52 H151       10.7730   -0.6230   11.0910 h1        1 CXE      0.039700
     53 H152       12.5750   -0.9480   10.9930 h1        1 CXE      0.039700
     54 H161       12.6840    1.7370   10.5580 h1        1 CXE      0.060700
     55 H162       12.5550    1.0550   12.2650 h1        1 CXE      0.060700
     56 H181       10.0840    1.6160    9.6320 h1        1 CXE      0.053200
     57 H182       10.8450    3.2390   10.0050 h1        1 CXE      0.053200
     58 H191        8.1610    2.0950   11.1120 h1        1 CXE      0.039200
     59 H192        8.9970    3.5580   11.8250 h1        1 CXE      0.039200
     60 H211        7.1390    4.8690   11.1130 h1        1 CXE      0.043700
     61 H212        6.3350    3.4730   10.2350 h1        1 CXE      0.043700
     62 H221        7.4040    5.0460    8.1110 h1        1 CXE      0.044700
     63 H222        5.6600    5.0720    8.6840 h1        1 CXE      0.044700
     64 H241        5.6350    7.4850    8.0790 h1        1 CXE      0.039200
     65 H242        7.3990    7.3420    7.5980 h1        1 CXE      0.039200
     66 H251        6.3470    9.0120   10.0130 h1        1 CXE      0.052200
     67 H252        6.7620    9.7090    8.3630 h1        1 CXE      0.052200
     68 H26         8.5810    8.2780    9.9790 ho        1 CXE      0.415000
@<TRIPOS>BOND
     1    1    2 1   
     2    1   27 1   
     3    1   28 1   
     4    1   29 1   
     5    2    3 1   
     6    2   30 1   
     7    2   31 1   
     8    3    4 1   
     9    3   32 1   
    10    3   33 1   
    11    4    5 1   
    12    4   34 1   
    13    4   35 1   
    14    5    6 1   
    15    5   36 1   
    16    5   37 1   
    17    6    7 1   
    18    6   38 1   
    19    6   39 1   
    20    7    8 1   
    21    7   40 1   
    22    7   41 1   
    23    8    9 1   
    24    8   42 1   
    25    8   43 1   
    26    9   10 1   
    27    9   44 1   
    28    9   45 1   
    29   10   11 1   
    30   10   46 1   
    31   10   47 1   
    32   11   12 1   
    33   12   13 1   
    34   12   48 1   
    35   12   49 1   
    36   13   14 1   
    37   13   50 1   
    38   13   51 1   
    39   14   15 1   
    40   15   16 1   
    41   15   52 1   
    42   15   53 1   
    43   16   17 1   
    44   16   54 1   
    45   16   55 1   
    46   17   18 1   
    47   18   19 1   
    48   18   56 1   
    49   18   57 1   
    50   19   20 1   
    51   19   58 1   
    52   19   59 1   
    53   20   21 1   
    54   21   22 1   
    55   21   60 1   
    56   21   61 1   
    57   22   23 1   
    58   22   62 1   
    59   22   63 1   
    60   23   24 1   
    61   24   25 1   
    62   24   64 1   
    63   24   65 1   
    64   25   26 1   
    65   25   66 1   
    66   25   67 1   
    67   26   68 1   
@<TRIPOS>SUBSTRUCTURE
     1 CXE         1 TEMP              0 ****  ****    0 ROOT
