@<TRIPOS>MOLECULE
molecule
   68    67     1     0     0
SMALL
bcc


@<TRIPOS>ATOM
      1 C1           0.0000     0.0000     0.0000 c3         1 CXE      -0.090100
      2 C2           1.5210     0.0000     0.0000 c3         1 CXE      -0.082400
      3 C3           2.0810     0.0000     1.4230 c3         1 CXE      -0.079400
      4 C4           3.6100    -0.0350     1.4190 c3         1 CXE      -0.077400
      5 C5           4.1660    -0.0740     2.8440 c3         1 CXE      -0.078400
      6 C6           5.6930    -0.1810     2.8990 c3         1 CXE      -0.079400
      7 C7           6.2440    -0.2960     4.3220 c3         1 CXE      -0.075400
      8 C8           7.7730    -0.3700     4.3200 c3         1 CXE      -0.077400
      9 C9           8.3250    -0.5130     5.7410 c3         1 CXE      -0.082400
     10 C10          9.8440    -0.6220     5.7620 c3         1 CXE       0.137400
     11 O11         10.3050    -0.7340     7.1010 os         1 CXE      -0.400600
     12 C12         11.7210    -0.8380     7.1600 c3         1 CXE       0.140400
     13 C13         12.1510    -0.9300     8.6110 c3         1 CXE       0.134400
     14 O14         11.7400     0.2480     9.2920 os         1 CXE      -0.385600
     15 C15         12.1180     0.2170    10.6620 c3         1 CXE       0.136400
     16 C16         11.6750     1.5060    11.3270 c3         1 CXE       0.136400
     17 O17         10.2650     1.6340    11.1990 os         1 CXE      -0.389600
     18 C18          9.7930     2.8290    11.8070 c3         1 CXE       0.135400
     19 C19          8.2910     2.9210    11.6180 c3         1 CXE       0.136400
     20 O20          8.0000     2.9580    10.2260 os         1 CXE      -0.381600
     21 C21          6.6010     3.0230     9.9890 c3         1 CXE       0.137400
     22 C22          6.3550     3.0600     8.4930 c3         1 CXE       0.134400
     23 O23          6.9740     4.2200     7.9490 os         1 CXE      -0.392600
     24 C24          6.7930     4.2940     6.5410 c3         1 CXE       0.136400
     25 C25          7.4730     5.5470     6.0210 c3         1 CXE       0.144400
     26 O26          8.8580     5.4910     6.3460 oh         1 CXE      -0.588800
     27 H011        -0.3610     0.8800     0.5180 hc         1 CXE       0.033033
     28 H012        -0.3610     0.0080    -1.0210 hc         1 CXE       0.033033
     29 H013        -0.3610    -0.8880     0.5040 hc         1 CXE       0.033033
     30 H021         1.8750    -0.8820    -0.5190 hc         1 CXE       0.038200
     31 H022         1.8750     0.8820    -0.5190 hc         1 CXE       0.038200
     32 H031         1.7080    -0.8690     1.9500 hc         1 CXE       0.039200
     33 H032         1.7480     0.8950     1.9340 hc         1 CXE       0.039200
     34 H041         3.9840     0.8490     0.9160 hc         1 CXE       0.039200
     35 H042         3.9440    -0.9160     0.8830 hc         1 CXE       0.039200
     36 H051         3.8640     0.8300     3.3590 hc         1 CXE       0.037700
     37 H052         3.7400    -0.9260     3.3590 hc         1 CXE       0.037700
     38 H061         5.9990    -1.0560     2.3380 hc         1 CXE       0.038200
     39 H062         6.1190     0.6980     2.4320 hc         1 CXE       0.038200
     40 H071         5.8460    -1.1900     4.7850 hc         1 CXE       0.040200
     41 H072         5.9320     0.5700     4.8940 hc         1 CXE       0.040200
     42 H081         8.0860    -1.2230     3.7310 hc         1 CXE       0.038700
     43 H082         8.1710     0.5340     3.8740 hc         1 CXE       0.038700
     44 H091         7.9030    -1.4020     6.1940 hc         1 CXE       0.053200
     45 H092         8.0270     0.3520     6.3220 hc         1 CXE       0.053200
     46 H101        10.2740     0.2620     5.3070 h1         1 CXE       0.019200
     47 H102        10.1490    -1.4980     5.2030 h1         1 CXE       0.019200
     48 H121        12.1680     0.0370     6.7040 h1         1 CXE       0.029700
     49 H122        12.0420    -1.7270     6.6300 h1         1 CXE       0.029700
     50 H131        11.6890    -1.7950     9.0720 h1         1 CXE       0.028200
     51 H132        13.2290    -1.0240     8.6650 h1         1 CXE       0.028200
     52 H151        11.6420    -0.6250    11.1500 h1         1 CXE       0.027700
     53 H152        13.1940     0.1200    10.7400 h1         1 CXE       0.027700
     54 H161        12.1600     2.3470    10.8470 h1         1 CXE       0.028700
     55 H162        11.9430     1.4830    12.3760 h1         1 CXE       0.028700
     56 H181        10.0250     2.8130    12.8650 h1         1 CXE       0.030200
     57 H182        10.2710     3.6840    11.3440 h1         1 CXE       0.030200
     58 H191         7.8150     2.0560    12.0650 h1         1 CXE       0.027700
     59 H192         7.9210     3.8230    12.0900 h1         1 CXE       0.027700
     60 H211         6.1200     2.1500    10.4140 h1         1 CXE       0.027700
     61 H212         6.1970     3.9180    10.4450 h1         1 CXE       0.027700
     62 H221         6.7770     2.1740     8.0340 h1         1 CXE       0.031700
     63 H222         5.2890     3.0950     8.3020 h1         1 CXE       0.031700
     64 H241         7.2310     3.4220     6.0720 h1         1 CXE       0.029200
     65 H242         5.7350     4.3350     6.3130 h1         1 CXE       0.029200
     66 H251         7.3550     5.6040     4.9460 h1         1 CXE       0.023700
     67 H252         7.0280     6.4200     6.4820 h1         1 CXE       0.023700
     68 H26          9.3050     6.2180     5.9450 ho         1 CXE       0.395000
@<TRIPOS>BOND
     1     1     2 1
     2     1    27 1
     3     1    28 1
     4     1    29 1
     5     2     3 1
     6     2    30 1
     7     2    31 1
     8     3     4 1
     9     3    32 1
    10     3    33 1
    11     4     5 1
    12     4    34 1
    13     4    35 1
    14     5     6 1
    15     5    36 1
    16     5    37 1
    17     6     7 1
    18     6    38 1
    19     6    39 1
    20     7     8 1
    21     7    40 1
    22     7    41 1
    23     8     9 1
    24     8    42 1
    25     8    43 1
    26     9    10 1
    27     9    44 1
    28     9    45 1
    29    10    11 1
    30    10    46 1
    31    10    47 1
    32    11    12 1
    33    12    13 1
    34    12    48 1
    35    12    49 1
    36    13    14 1
    37    13    50 1
    38    13    51 1
    39    14    15 1
    40    15    16 1
    41    15    52 1
    42    15    53 1
    43    16    17 1
    44    16    54 1
    45    16    55 1
    46    17    18 1
    47    18    19 1
    48    18    56 1
    49    18    57 1
    50    19    20 1
    51    19    58 1
    52    19    59 1
    53    20    21 1
    54    21    22 1
    55    21    60 1
    56    21    61 1
    57    22    23 1
    58    22    62 1
    59    22    63 1
    60    23    24 1
    61    24    25 1
    62    24    64 1
    63    24    65 1
    64    25    26 1
    65    25    66 1
    66    25    67 1
    67    26    68 1
@<TRIPOS>SUBSTRUCTURE
     1 CXE         1 TEMP              0 ****  ****    0 ROOT
