@<TRIPOS>MOLECULE
molecule
   22    22     1     0     0
SMALL
bcc


@<TRIPOS>ATOM
      1 C1           0.0000     0.0000     0.0000 c3         1 CXF       0.110700
      2 C2           1.5300     0.0000     0.0000 c3         1 CXF      -0.092900
      3 C3           2.0390     0.0000     1.4420 c3         1 CXF      -0.076900
      4 C4           1.5290     1.2470     2.1640 c3         1 CXF      -0.083400
      5 C5          -0.0010     1.2460     2.1640 c3         1 CXF      -0.076900
      6 C6          -0.5110     1.2460     0.7210 c3         1 CXF      -0.092900
      7 N8          -0.4880    -0.0000    -1.3810 ns         1 CXF      -0.593900
      8 C7          -1.6660    -0.5850    -1.6800 c          1 CXF       0.656900
      9 O9          -2.3200    -1.1100    -0.8060 o          1 CXF      -0.614100
     10 H1          -0.3580    -0.8840     0.5140 h1         1 CXF       0.084700
     11 H21          1.8900     0.8860    -0.5090 hc         1 CXF       0.046200
     12 H22          1.8900    -0.8860    -0.5090 hc         1 CXF       0.046200
     13 H31          1.6770    -0.8850     1.9510 hc         1 CXF       0.045200
     14 H32          3.1230     0.0040     1.4400 hc         1 CXF       0.045200
     15 H41          1.8880     2.1320     1.6530 hc         1 CXF       0.041700
     16 H42          1.8880     1.2430     3.1860 hc         1 CXF       0.041700
     17 H51         -0.3610     2.1330     2.6720 hc         1 CXF       0.045200
     18 H52         -0.3600     0.3600     2.6730 hc         1 CXF       0.045200
     19 H61         -1.5940     1.2420     0.7230 hc         1 CXF       0.046200
     20 H62         -0.1480     2.1310     0.2110 hc         1 CXF       0.046200
     21 HN8          0.0610     0.4180    -2.1060 hn         1 CXF       0.310500
     22 H7          -2.0170    -0.6030    -2.7040 h5         1 CXF       0.020200
@<TRIPOS>BOND
     1     1     2 1
     2     1     6 1
     3     1     7 1
     4     1    10 1
     5     2     3 1
     6     2    11 1
     7     2    12 1
     8     3     4 1
     9     3    13 1
    10     3    14 1
    11     4     5 1
    12     4    15 1
    13     4    16 1
    14     5     6 1
    15     5    17 1
    16     5    18 1
    17     6    19 1
    18     6    20 1
    19     7     8 1
    20     7    21 1
    21     8     9 2
    22     8    22 1
@<TRIPOS>SUBSTRUCTURE
     1 CXF         1 TEMP              0 ****  ****    0 ROOT
