@<TRIPOS>MOLECULE
CXH
   20    20     1     0     0
SMALL
bcc


@<TRIPOS>ATOM
      1 C10          0.0000     0.0000     0.0000 ca         1 CXH      -0.125000
      2 C02          1.3860     0.0000     2.3990 ca         1 CXH      -0.019600
      3 C03          2.0810     0.0000     1.2040 ca         1 CXH      -0.095000
      4 C04          1.3900     0.0000     0.0000 ca         1 CXH      -0.077400
      5 C06          3.2720    -0.6430    -1.3060 c          1 CXH       0.576100
      6 C07          4.0830    -0.5440    -2.5720 c3         1 CXH       0.015700
      7 C11         -0.6890     0.0050     1.1970 ca         1 CXH      -0.070000
      8 C12          0.0020     0.0050     2.3950 ca         1 CXH      -0.053600
      9 N05          2.0900    -0.0010    -1.2110 ns         1 CXH      -0.037100
     10 O09          3.6810    -1.2990    -0.3720 o          1 CXH      -0.586100
     11 S08          5.6070    -1.5100    -2.3900 sh         1 CXH      -0.334900
     12 Cl1          2.2500     0.0000     3.9050 cl         1 CXH       0.004600
     13 Cl2         -0.8680     0.0050     3.8980 cl         1 CXH      -0.004400
     14 H1          -0.5420     0.0000    -0.9380 ha         1 CXH       0.109000
     15 H2           3.1650    -0.0020     1.2070 ha         1 CXH       0.154000
     16 H3           3.5060    -0.9340    -3.4020 h1         1 CXH       0.042200
     17 H4           4.3330     0.4930    -2.7610 h1         1 CXH       0.042200
     18 H5          -1.7730     0.0070     1.1970 ha         1 CXH       0.117000
     19 H6           1.7190     0.4840    -2.0040 hn         1 CXH       0.167500
     20 H7           6.3220    -1.4230    -3.5050 hs         1 CXH       0.172800
@<TRIPOS>BOND
     1     1     4 ar  
     2     1     7 ar  
     3     1    14 1   
     4     2     3 ar  
     5     2     8 ar  
     6     2    12 1   
     7     3     4 ar  
     8     3    15 1   
     9     4     9 1   
    10     5     6 1   
    11     5     9 1   
    12     5    10 2   
    13     6    11 1   
    14     6    16 1   
    15     6    17 1   
    16     7     8 ar  
    17     7    18 1   
    18     8    13 1   
    19     9    19 1   
    20    11    20 1   
@<TRIPOS>SUBSTRUCTURE
     1 CXH         1 TEMP              0 ****  ****    0 ROOT
