@<TRIPOS>MOLECULE
molecule
   18    18     1     0     0
SMALL
bcc


@<TRIPOS>ATOM
      1 C7           0.0000     0.0000     0.0000 ca         1 CXJ      -0.157000
      2 C4           1.3830    -0.0000     2.3970 ca         1 CXJ       0.134400
      3 C5           2.0760     0.0000     1.2000 ca         1 CXJ      -0.236000
      4 C6           1.3850     0.0000     0.0000 ca         1 CXJ       0.134400
      5 C3          -0.0020     0.0100     2.3950 ca         1 CXJ      -0.157000
      6 C2          -0.6920     0.0050     1.1960 ca         1 CXJ       0.016700
      7 C1          -2.7010    -1.3930     1.4470 c          1 CXJ       0.881600
      8 F1           2.0600    -0.0000    -1.1700 f          1 CXJ      -0.156900
      9 F            2.0570    -0.0100     3.5670 f          1 CXJ      -0.156900
     10 C           -2.1990     0.0050     1.1960 c3         1 CXJ       0.073400
     11 O           -2.6750     0.8760     2.2240 oh         1 CXJ      -0.595800
     12 H5          -0.5410    -0.0020    -0.9380 ha         1 CXJ       0.159500
     13 H4           3.1590    -0.0040     1.2010 ha         1 CXJ       0.135000
     14 H3          -0.5450     0.0120     3.3320 ha         1 CXJ       0.159500
     15 H1          -2.5590     0.3500     0.2340 h1         1 CXJ       0.030700
     16 H           -3.3040     1.4780     1.8600 ho         1 CXJ       0.380000
     17 O1          -2.4610    -2.3630     0.5530 o          1 CXJ      -0.822300
     18 O2          -3.3200    -1.6390     2.4560 o          1 CXJ      -0.822300
@<TRIPOS>BOND
     1    11    10 1
     2    10     7 1
     3    10     6 1
     4    18     7 1
     5     7    17 1
     6     6     1 ar
     7     6     5 ar
     8     1     4 ar
     9     5     2 ar
    10     4     8 1
    11     4     3 ar
    12     2     3 ar
    13     2     9 1
    14     1    12 1
    15     3    13 1
    16     5    14 1
    17    10    15 1
    18    11    16 1
@<TRIPOS>SUBSTRUCTURE
     1 CXJ         1 TEMP              0 ****  ****    0 ROOT
