@<TRIPOS>MOLECULE
CXL
   19    19     1     0     0
SMALL
bcc


@<TRIPOS>ATOM
      1 C1          0.0480   -0.0900    0.0020 c3        1 CXL      0.142100
      2 C2          1.5740   -0.0670    0.0260 c3        1 CXL     -0.093400
      3 C3          2.0810    0.0410    1.4470 c3        1 CXL     -0.074900
      4 C4          1.5050    1.2530    2.1520 c3        1 CXL     -0.078400
      5 C5         -0.0090    1.2380    2.1220 c3        1 CXL     -0.074900
      6 C6         -0.5320    1.1330    0.7060 c3        1 CXL     -0.093400
      7 O          -0.3330   -0.1200   -1.3690 oh        1 CXL     -0.600800
      8 H1         -0.3260   -1.0260    0.5060 h1        1 CXL      0.030700
      9 H21         1.9620   -1.0010   -0.4560 hc        1 CXL      0.050200
     10 H22         1.9350    0.8020   -0.5830 hc        1 CXL      0.050200
     11 H31         3.2000    0.1100    1.4370 hc        1 CXL      0.041200
     12 H32         1.8070   -0.8860    2.0150 hc        1 CXL      0.041200
     13 H41         1.8590    1.2730    3.2150 hc        1 CXL      0.041700
     14 H42         1.8790    2.1860    1.6540 hc        1 CXL      0.041700
     15 H51        -0.3860    0.3710    2.7250 hc        1 CXL      0.041200
     16 H52        -0.4040    2.1740    2.5970 hc        1 CXL      0.041200
     17 H61        -1.6510    1.0620    0.7170 hc        1 CXL      0.050200
     18 H62        -0.2570    2.0520    0.1260 hc        1 CXL      0.050200
     19 HO         -1.2950   -0.0580   -1.3910 ho        1 CXL      0.398000
@<TRIPOS>BOND
     1    1    2 1   
     2    1    6 1   
     3    1    7 1   
     4    1    8 1   
     5    2    3 1   
     6    2    9 1   
     7    2   10 1   
     8    3    4 1   
     9    3   11 1   
    10    3   12 1   
    11    4    5 1   
    12    4   13 1   
    13    4   14 1   
    14    5    6 1   
    15    5   15 1   
    16    5   16 1   
    17    6   17 1   
    18    6   18 1   
    19    7   19 1   
@<TRIPOS>SUBSTRUCTURE
     1 CXL         1 TEMP              0 ****  ****    0 ROOT
