@<TRIPOS>MOLECULE
molecule
   19    19     1     0     0
SMALL
bcc


@<TRIPOS>ATOM
      1 C1           0.0000     0.0000     0.0000 c3         1 CXL       0.148100
      2 C2           1.5300     0.0000     0.0000 c3         1 CXL      -0.090400
      3 C3           2.0400     0.0000     1.4400 c3         1 CXL      -0.079400
      4 C4           1.5300     1.2480     2.1630 c3         1 CXL      -0.081400
      5 C5           0.0010     1.2460     2.1640 c3         1 CXL      -0.079400
      6 C6          -0.5100     1.2470     0.7220 c3         1 CXL      -0.090400
      7 O           -0.4770     0.0000    -1.3470 oh         1 CXL      -0.606800
      8 H1          -0.3580    -0.8840     0.5140 h1         1 CXL       0.028700
      9 H21          1.8890     0.8860    -0.5090 hc         1 CXL       0.050200
     10 H22          1.8890    -0.8860    -0.5090 hc         1 CXL       0.050200
     11 H31          1.6790    -0.8850     1.9500 hc         1 CXL       0.041450
     12 H32          3.1240     0.0040     1.4380 hc         1 CXL       0.041450
     13 H41          1.8880     2.1320     1.6510 hc         1 CXL       0.042700
     14 H42          1.8900     1.2440     3.1840 hc         1 CXL       0.042700
     15 H51         -0.3580     0.3600     2.6720 hc         1 CXL       0.041450
     16 H52         -0.3590     2.1320     2.6730 hc         1 CXL       0.041450
     17 H61         -0.1480     2.1320     0.2130 hc         1 CXL       0.050200
     18 H62         -1.5930     1.2440     0.7250 hc         1 CXL       0.050200
     19 HO          -1.0000    -0.7700    -1.4950 ho         1 CXL       0.399000
@<TRIPOS>BOND
     1     1     2 1
     2     1     6 1
     3     1     7 1
     4     1     8 1
     5     2     3 1
     6     2     9 1
     7     2    10 1
     8     3     4 1
     9     3    11 1
    10     3    12 1
    11     4     5 1
    12     4    13 1
    13     4    14 1
    14     5     6 1
    15     5    15 1
    16     5    16 1
    17     6    17 1
    18     6    18 1
    19     7    19 1
@<TRIPOS>SUBSTRUCTURE
     1 CXL         1 TEMP              0 ****  ****    0 ROOT
