@<TRIPOS>MOLECULE
CXN
   47    50     1     0     0
SMALL
bcc


@<TRIPOS>ATOM
      1 C1         -0.2100    0.1900   -0.1790 c         1 CXN      0.667500
      2 O1         -0.9320    0.1300   -1.1610 o         1 CXN     -0.534500
      3 C2          1.3740    0.2240   -0.0920 cy        1 CXN     -0.069500
      4 C3          1.1320    0.3740    1.4550 cy        1 CXN      0.144800
      5 N7         -0.3180    0.1660    1.2310 n         1 CXN     -0.283800
      6 C6         -1.1490    1.0580    2.0110 c3        1 CXN     -0.129300
      7 C8         -1.5970    0.3660    3.4010 c         1 CXN      0.958600
      8 O81        -2.7950    0.5860    3.6820 o         1 CXN     -0.772300
      9 O82        -0.7280   -0.2660    4.0360 o         1 CXN     -0.772300
     10 C5         -0.4090    2.3910    2.2980 c3        1 CXN      0.114100
     11 C51        -0.5820    2.8450    3.7230 c3        1 CXN     -0.101600
     12 C52        -0.8040    3.4710    1.3250 c3        1 CXN     -0.101600
     13 S4          1.4040    2.0410    2.0530 ss        1 CXN     -0.408200
     14 N2          1.9740    1.3980   -0.7520 n4        1 CXN     -0.665800
     15 C21         3.3760    1.1990   -1.2320 c         1 CXN      0.604700
     16 O21         4.0260    0.2770   -0.7400 o         1 CXN     -0.456100
     17 C22         3.8500    2.1290   -2.2270 cc        1 CXN     -0.458200
     18 N25         4.0120    3.7140   -3.8670 nd        1 CXN     -0.303300
     19 O24         5.2240    3.2430   -3.6220 os        1 CXN     -0.091100
     20 C23         5.1870    2.2640   -2.6250 cd        1 CXN      0.421000
     21 C26         3.1230    3.0970   -3.0640 cc        1 CXN      0.416800
     22 C27         6.4480    1.6420   -2.2310 c3        1 CXN     -0.180400
     23 C28         1.6870    3.3500   -3.0760 ca        1 CXN     -0.200500
     24 C29         1.0830    4.1620   -2.0990 ca        1 CXN      0.006400
     25 CL          2.0120    4.8530   -0.8570 cl        1 CXN     -0.066400
     26 C30        -0.2930    4.4100   -2.1440 ca        1 CXN     -0.121000
     27 C31        -1.0640    3.8580   -3.1670 ca        1 CXN     -0.083000
     28 C32        -0.4680    3.0620   -4.1460 ca        1 CXN     -0.116000
     29 C33         0.9030    2.8130   -4.1050 ca        1 CXN     -0.086000
     30 H2          1.8890   -0.7240   -0.3860 hx        1 CXN      0.144700
     31 H3          1.5910   -0.4010    2.1100 h2        1 CXN      0.166700
     32 H6         -2.1000    1.2650    1.4460 h1        1 CXN      0.100700
     33 H511       -0.1110    2.1120    4.4280 hc        1 CXN      0.057700
     34 H512       -1.6760    2.8920    3.9660 hc        1 CXN      0.057700
     35 H513       -0.1260    3.8530    3.8740 hc        1 CXN      0.057700
     36 H521       -1.8800    3.7370    1.4860 hc        1 CXN      0.057700
     37 H522       -0.1900    4.3920    1.4760 hc        1 CXN      0.057700
     38 H523       -0.6820    3.1300    0.2670 hc        1 CXN      0.057700
     39 HN2         1.3800    1.6700   -1.5470 hn        1 CXN      0.481300
     40 H271        7.0700    2.3780   -1.6550 hc        1 CXN      0.099033
     41 H272        7.0290    1.3300   -3.1380 hc        1 CXN      0.099033
     42 H273        6.2500    0.7460   -1.5880 hc        1 CXN      0.099033
     43 H30        -0.7640    5.0430   -1.3740 ha        1 CXN      0.169000
     44 H31        -2.1480    4.0550   -3.1990 ha        1 CXN      0.162000
     45 H32        -1.0790    2.6310   -4.9540 ha        1 CXN      0.160000
     46 H33         1.3760    2.1990   -4.8880 ha        1 CXN      0.156000
     47 H22         1.9600    2.1900   -0.0240 hn        1 CXN      0.481300
@<TRIPOS>BOND
     1    1    2 2   
     2    1    3 1   
     3    1    5 1   
     4    3    4 1   
     5    3   14 1   
     6    3   30 1   
     7    4    5 1   
     8    4   13 1   
     9    4   31 1   
    10    5    6 1   
    11    6    7 1   
    12    6   10 1   
    13    6   32 1   
    14    7    8 1   
    15    7    9 1   
    16   10   11 1   
    17   10   12 1   
    18   10   13 1   
    19   11   33 1   
    20   11   34 1   
    21   11   35 1   
    22   12   36 1   
    23   12   37 1   
    24   12   38 1   
    25   14   15 1   
    26   14   39 1   
    27   14   47 1   
    28   15   16 2   
    29   15   17 1   
    30   17   20 2   
    31   17   21 1   
    32   18   19 1   
    33   18   21 2   
    34   19   20 1   
    35   20   22 1   
    36   21   23 1   
    37   22   40 1   
    38   22   41 1   
    39   22   42 1   
    40   23   24 ar  
    41   23   29 ar  
    42   24   25 1   
    43   24   26 ar  
    44   26   27 ar  
    45   26   43 1   
    46   27   28 ar  
    47   27   44 1   
    48   28   29 ar  
    49   28   45 1   
    50   29   46 1   
@<TRIPOS>SUBSTRUCTURE
     1 CXN         1 TEMP              0 ****  ****    0 ROOT
