@<TRIPOS>MOLECULE
CXO
   16    16     1     0     0
SMALL
bcc


@<TRIPOS>ATOM
      1 O2         -0.0450   -0.2180   -0.0430 o         1 CXO     -0.481100
      2 C2          1.1750   -0.0670   -0.0200 c         1 CXO      0.478100
      3 C3          1.9820   -0.0140    1.2450 c3        1 CXO     -0.181400
      4 C4          3.1400   -0.9910    1.1910 c3        1 CXO     -0.078400
      5 C5          3.9940   -0.7860   -0.0430 c3        1 CXO     -0.078400
      6 C6          3.1790   -0.8840   -1.3170 c3        1 CXO     -0.181400
      7 C1          2.0050    0.0520   -1.2760 c         1 CXO      0.478100
      8 O1          1.7480    0.8610   -2.1660 o         1 CXO     -0.481100
      9 H31         2.3680    1.0340    1.3690 hc        1 CXO      0.077200
     10 H32         1.3260   -0.2430    2.1260 hc        1 CXO      0.077200
     11 H41         2.7430   -2.0400    1.2030 hc        1 CXO      0.054200
     12 H42         3.7710   -0.8610    2.1090 hc        1 CXO      0.054200
     13 H51         4.8060   -1.5590   -0.0680 hc        1 CXO      0.054200
     14 H52         4.4890    0.2200    0.0060 hc        1 CXO      0.054200
     15 H61         3.8220   -0.6500   -2.2050 hc        1 CXO      0.077200
     16 H62         2.7870   -1.9290   -1.4440 hc        1 CXO      0.077200
@<TRIPOS>BOND
     1    1    2 2   
     2    2    3 1   
     3    2    7 1   
     4    3    4 1   
     5    3    9 1   
     6    3   10 1   
     7    4    5 1   
     8    4   11 1   
     9    4   12 1   
    10    5    6 1   
    11    5   13 1   
    12    5   14 1   
    13    6    7 1   
    14    6   15 1   
    15    6   16 1   
    16    7    8 2   
@<TRIPOS>SUBSTRUCTURE
     1 CXO         1 TEMP              0 ****  ****    0 ROOT
