@<TRIPOS>MOLECULE
molecule
   16    16     1     0     0
SMALL
bcc


@<TRIPOS>ATOM
      1 O2           0.0000     0.0000     0.0000 o          1 CXO      -0.471600
      2 C2           1.2080     0.0000     0.0000 c          1 CXO       0.476100
      3 C3           2.0050     0.0000     1.2890 c3         1 CXO      -0.179400
      4 C4           3.1140    -1.0500     1.1690 c3         1 CXO      -0.081400
      5 C5           4.0010    -0.7340    -0.0350 c3         1 CXO      -0.081400
      6 C6           3.2030    -0.9150    -1.3300 c3         1 CXO      -0.179400
      7 C1           1.9950    -0.0070    -1.2770 c          1 CXO       0.476100
      8 O1           1.6820     0.6820    -2.2190 o          1 CXO      -0.471600
      9 H31          1.3550    -0.2500     2.1190 hc         1 CXO       0.075200
     10 H32          2.4450     0.9780     1.4450 hc         1 CXO       0.075200
     11 H41          2.6680    -2.0290     1.0390 hc         1 CXO       0.052700
     12 H42          3.7150    -1.0400     2.0700 hc         1 CXO       0.052700
     13 H51          4.3470     0.2900     0.0330 hc         1 CXO       0.052700
     14 H52          4.8500    -1.4070    -0.0400 hc         1 CXO       0.052700
     15 H61          3.8220    -0.6480    -2.1780 hc         1 CXO       0.075200
     16 H62          2.8800    -1.9450    -1.4170 hc         1 CXO       0.075200
@<TRIPOS>BOND
     1     1     2 2
     2     2     3 1
     3     2     7 1
     4     3     4 1
     5     3     9 1
     6     3    10 1
     7     4     5 1
     8     4    11 1
     9     4    12 1
    10     5     6 1
    11     5    13 1
    12     5    14 1
    13     6     7 1
    14     6    15 1
    15     6    16 1
    16     7     8 2
@<TRIPOS>SUBSTRUCTURE
     1 CXO         1 TEMP              0 ****  ****    0 ROOT
