@<TRIPOS>MOLECULE
CXP
   26    26     1     0     0
SMALL
bcc


@<TRIPOS>ATOM
      1 C1         -0.0340    0.1170   -0.0090 c3        1 CXP     -0.063700
      2 C2          1.4890    0.0910   -0.0220 c3        1 CXP     -0.073900
      3 C3          2.0580    0.0420    1.3810 c3        1 CXP     -0.074900
      4 C4          1.5510    1.1950    2.2230 c3        1 CXP     -0.072400
      5 C5          0.0360    1.2340    2.2390 c3        1 CXP     -0.074900
      6 C6         -0.5290    1.2830    0.8350 c3        1 CXP     -0.073900
      7 C7         -0.5720    0.1940   -1.4310 c3        1 CXP     -0.063400
      8 C8         -2.0530   -0.0810   -1.5180 c3        1 CXP     -0.194400
      9 C9         -2.5030   -0.2620   -2.9790 c         1 CXP      0.907600
     10 O1         -3.5720    0.3100   -3.3390 o         1 CXP     -0.852800
     11 O2         -1.8000   -0.9850   -3.7440 o         1 CXP     -0.852800
     12 H1         -0.3990   -0.8390    0.4610 hc        1 CXP      0.039700
     13 H21         1.8690    1.0030   -0.5510 hc        1 CXP      0.040200
     14 H22         1.8390   -0.8040   -0.5990 hc        1 CXP      0.040200
     15 H31         3.1780    0.0750    1.3360 hc        1 CXP      0.026700
     16 H32         1.7690   -0.9270    1.8670 hc        1 CXP      0.026700
     17 H41         1.9430    2.1600    1.8070 hc        1 CXP      0.025700
     18 H42         1.9390    1.0980    3.2700 hc        1 CXP      0.025700
     19 H51        -0.3090    2.1300    2.8170 hc        1 CXP      0.026700
     20 H52        -0.3530    0.3240    2.7670 hc        1 CXP      0.026700
     21 H61        -0.2350    2.2480    0.3450 hc        1 CXP      0.040200
     22 H62        -1.6490    1.2560    0.8780 hc        1 CXP      0.040200
     23 H71        -0.0370   -0.5580   -2.0730 hc        1 CXP      0.046200
     24 H72        -0.3530    1.2080   -1.8560 hc        1 CXP      0.046200
     25 H81        -2.6370    0.7520   -1.0540 hc        1 CXP      0.019200
     26 H82        -2.3010   -1.0240   -0.9670 hc        1 CXP      0.019200
@<TRIPOS>BOND
     1    1    2 1   
     2    1    6 1   
     3    1    7 1   
     4    1   12 1   
     5    2    3 1   
     6    2   13 1   
     7    2   14 1   
     8    3    4 1   
     9    3   15 1   
    10    3   16 1   
    11    4    5 1   
    12    4   17 1   
    13    4   18 1   
    14    5    6 1   
    15    5   19 1   
    16    5   20 1   
    17    6   21 1   
    18    6   22 1   
    19    7    8 1   
    20    7   23 1   
    21    7   24 1   
    22    8    9 1   
    23    8   25 1   
    24    8   26 1   
    25    9   10 1   
    26    9   11 1   
@<TRIPOS>SUBSTRUCTURE
     1 CXP         1 TEMP              0 ****  ****    0 ROOT
