@<TRIPOS>MOLECULE
molecule
   26    26     1     0     0
SMALL
bcc


@<TRIPOS>ATOM
      1 C1           0.0000     0.0000     0.0000 c3         1 CXP      -0.075700
      2 C2           1.5300     0.0000     0.0000 c3         1 CXP      -0.074400
      3 C3           2.0400     0.0000     1.4420 c3         1 CXP      -0.080900
      4 C4           1.5310     1.2480     2.1620 c3         1 CXP      -0.077400
      5 C5           0.0010     1.2500     2.1630 c3         1 CXP      -0.080900
      6 C6          -0.5090     1.2490     0.7210 c3         1 CXP      -0.074400
      7 C7          -0.5100    -0.0010    -1.4420 c3         1 CXP      -0.059400
      8 C8          -2.0390     0.0010    -1.4420 c3         1 CXP      -0.186400
      9 C9          -2.5420    -0.0010    -2.8630 c          1 CXP       0.891600
     10 O1          -3.8610     0.0000    -3.1080 o          1 CXP      -0.857800
     11 O2          -1.7570    -0.0010    -3.7810 o          1 CXP      -0.857800
     12 H1          -0.3590    -0.8830     0.5150 hc         1 CXP       0.039700
     13 H21          1.8900    -0.8860    -0.5090 hc         1 CXP       0.043200
     14 H22          1.8900     0.8860    -0.5090 hc         1 CXP       0.043200
     15 H31          3.1230     0.0020     1.4410 hc         1 CXP       0.029200
     16 H32          1.6750    -0.8830     1.9530 hc         1 CXP       0.029200
     17 H41          1.8920     1.2460     3.1840 hc         1 CXP       0.028200
     18 H42          1.8920     2.1320     1.6490 hc         1 CXP       0.028200
     19 H51         -0.3590     0.3640     2.6730 hc         1 CXP       0.029200
     20 H52         -0.3570     2.1370     2.6710 hc         1 CXP       0.029200
     21 H61         -1.5920     1.2460     0.7220 hc         1 CXP       0.043200
     22 H62         -0.1460     2.1320     0.2100 hc         1 CXP       0.043200
     23 H71         -0.1480     0.8830    -1.9540 hc         1 CXP       0.046700
     24 H72         -0.1500    -0.8860    -1.9520 hc         1 CXP       0.046700
     25 H81         -2.3990     0.8870    -0.9330 hc         1 CXP       0.027700
     26 H82         -2.4010    -0.8820    -0.9290 hc         1 CXP       0.027700
@<TRIPOS>BOND
     1     1     2 1
     2     1     6 1
     3     1     7 1
     4     1    12 1
     5     2     3 1
     6     2    13 1
     7     2    14 1
     8     3     4 1
     9     3    15 1
    10     3    16 1
    11     4     5 1
    12     4    17 1
    13     4    18 1
    14     5     6 1
    15     5    19 1
    16     5    20 1
    17     6    21 1
    18     6    22 1
    19     7     8 1
    20     7    23 1
    21     7    24 1
    22     8     9 1
    23     8    25 1
    24     8    26 1
    25     9    10 1
    26     9    11 1
@<TRIPOS>SUBSTRUCTURE
     1 CXP         1 TEMP              0 ****  ****    0 ROOT
