@<TRIPOS>MOLECULE
CXQ
   48    51     1     0     0
SMALL
bcc


@<TRIPOS>ATOM
      1 C17          0.0000     0.0000     0.0000 c3         1 CXQ       0.182100
      2 N1           1.4690     0.0000     0.0000 n3         1 CXQ      -0.543600
      3 C3           2.0020     0.0000     1.3890 c3         1 CXQ       0.137000
      4 C12          1.8370    -1.4630     1.8590 c3         1 CXQ      -0.080400
      5 C13          1.8360    -2.2980     0.5610 c3         1 CXQ      -0.080400
      6 C2           2.0030    -1.2630    -0.5750 c3         1 CXQ       0.137000
      7 C8           3.5080     0.2970     1.2980 c3         1 CXQ      -0.034900
      8 C6           4.1940    -0.8450     0.5450 c3         1 CXQ       0.177100
      9 C7           3.5080    -1.0580    -0.8080 c3         1 CXQ      -0.034900
     10 O1           4.1060    -2.0450     1.3160 os         1 CXQ      -0.386600
     11 C1           5.1970    -2.9460     1.1170 c3         1 CXQ       0.274700
     12 C5           6.2920    -2.6340     2.1040 ca         1 CXQ      -0.110300
     13 C19          7.6140    -2.6810     1.7070 ca         1 CXQ      -0.085500
     14 C23          8.6190    -2.3960     2.6130 ca         1 CXQ      -0.102500
     15 C26          8.3010    -2.0650     3.9160 ca         1 CXQ      -0.098000
     16 C21          6.9780    -2.0180     4.3130 ca         1 CXQ      -0.102500
     17 C9           5.9730    -2.2980     3.4070 ca         1 CXQ      -0.085500
     18 C10          5.2510    -5.3840     0.5570 ca         1 CXQ      -0.085500
     19 C22          4.8170    -6.6830     0.7440 ca         1 CXQ      -0.102500
     20 C25          3.8530    -6.9590     1.6980 ca         1 CXQ      -0.098000
     21 C24          3.3250    -5.9360     2.4630 ca         1 CXQ      -0.102500
     22 C18          3.7600    -4.6370     2.2750 ca         1 CXQ      -0.085500
     23 C4           4.7230    -4.3610     1.3220 ca         1 CXQ      -0.110300
     24 H1          -0.3610    -0.0510    -1.0200 h1         1 CXQ       0.001700
     25 H2          -0.3610     0.9090     0.4650 h1         1 CXQ       0.001700
     26 H3          -0.3610    -0.8580     0.5550 h1         1 CXQ       0.001700
     27 H5           1.4800     0.7000     2.0300 h1         1 CXQ       0.038200
     28 H6           2.6670    -1.7520     2.4920 hc         1 CXQ       0.038200
     29 H7           0.8980    -1.5860     2.3860 hc         1 CXQ       0.038200
     30 H8           0.8970    -2.8280     0.4540 hc         1 CXQ       0.038200
     31 H9           2.6650    -2.9950     0.5610 hc         1 CXQ       0.038200
     32 H10          1.4820    -1.5560    -1.4780 h1         1 CXQ       0.038200
     33 H11          3.9230     0.3750     2.2960 hc         1 CXQ       0.025950
     34 H12          3.6630     1.2280     0.7670 hc         1 CXQ       0.025950
     35 H13          5.2360    -0.5960     0.3850 h1         1 CXQ       0.011700
     36 H14          3.6640    -0.1880    -1.4350 hc         1 CXQ       0.025950
     37 H15          3.9230    -1.9330    -1.2930 hc         1 CXQ       0.025950
     38 H16          5.5770    -2.8350     0.1090 h1         1 CXQ       0.020700
     39 H17          7.8640    -2.9410     0.6850 ha         1 CXQ       0.109750
     40 H18          9.6560    -2.4330     2.3010 ha         1 CXQ       0.102500
     41 H19          9.0880    -1.8430     4.6260 ha         1 CXQ       0.102000
     42 H20          6.7280    -1.7570     5.3340 ha         1 CXQ       0.102500
     43 H21          4.9370    -2.2620     3.7190 ha         1 CXQ       0.109750
     44 H23          5.2300    -7.4850     0.1450 ha         1 CXQ       0.102500
     45 H24          3.5120    -7.9770     1.8450 ha         1 CXQ       0.102000
     46 H25          2.5700    -6.1520     3.2090 ha         1 CXQ       0.102500
     47 H26          3.3460    -3.8350     2.8750 ha         1 CXQ       0.109750
     48 H22          6.0060    -5.1680    -0.1900 ha         1 CXQ       0.109750
@<TRIPOS>BOND
     1     1     2 1   
     2     1    24 1   
     3     1    25 1   
     4     1    26 1   
     5     2     3 1   
     6     2     6 1   
     7     3     4 1   
     8     3     7 1   
     9     3    27 1   
    10     4     5 1   
    11     4    28 1   
    12     4    29 1   
    13     5     6 1   
    14     5    30 1   
    15     5    31 1   
    16     6     9 1   
    17     6    32 1   
    18     7     8 1   
    19     7    33 1   
    20     7    34 1   
    21     8     9 1   
    22     8    10 1   
    23     8    35 1   
    24     9    36 1   
    25     9    37 1   
    26    10    11 1   
    27    11    12 1   
    28    11    23 1   
    29    11    38 1   
    30    12    13 ar  
    31    12    17 ar  
    32    13    14 ar  
    33    13    39 1   
    34    14    15 ar  
    35    14    40 1   
    36    15    16 ar  
    37    15    41 1   
    38    16    17 ar  
    39    16    42 1   
    40    17    43 1   
    41    18    19 ar  
    42    18    23 ar  
    43    18    48 1   
    44    19    20 ar  
    45    19    44 1   
    46    20    21 ar  
    47    20    45 1   
    48    21    22 ar  
    49    21    46 1   
    50    22    23 ar  
    51    22    47 1   
@<TRIPOS>SUBSTRUCTURE
     1 CXQ         1 TEMP              0 ****  ****    0 ROOT
