@<TRIPOS>MOLECULE
molecule
   48    51     1     0     0
SMALL
bcc


@<TRIPOS>ATOM
      1 C17          0.0000     0.0000     0.0000 c3         1 CXQ       0.141100
      2 N1           1.4690     0.0000     0.0000 n3         1 CXQ      -0.698600
      3 C3           2.0020     0.0000     1.3890 c3         1 CXQ       0.153500
      4 C12          1.8370    -1.4630     1.8590 c3         1 CXQ      -0.110400
      5 C13          1.8360    -2.2980     0.5610 c3         1 CXQ      -0.110400
      6 C2           2.0030    -1.2630    -0.5750 c3         1 CXQ       0.153500
      7 C8           3.5080     0.2970     1.2980 c3         1 CXQ      -0.076900
      8 C6           4.1940    -0.8450     0.5450 c3         1 CXQ       0.142100
      9 C7           3.5080    -1.0580    -0.8080 c3         1 CXQ      -0.076900
     10 O1           4.1060    -2.0450     1.3160 os         1 CXQ      -0.409600
     11 C1           5.1970    -2.9460     1.1170 c3         1 CXQ       0.224700
     12 C5           6.2920    -2.6340     2.1040 ca         1 CXQ      -0.095800
     13 C19          7.6140    -2.6810     1.7070 ca         1 CXQ      -0.110250
     14 C23          8.6190    -2.3960     2.6130 ca         1 CXQ      -0.130500
     15 C26          8.3010    -2.0650     3.9160 ca         1 CXQ      -0.124500
     16 C21          6.9780    -2.0180     4.3130 ca         1 CXQ      -0.130500
     17 C9           5.9730    -2.2980     3.4070 ca         1 CXQ      -0.110250
     18 C10          5.2510    -5.3840     0.5570 ca         1 CXQ      -0.110250
     19 C22          4.8170    -6.6830     0.7440 ca         1 CXQ      -0.130500
     20 C25          3.8530    -6.9590     1.6980 ca         1 CXQ      -0.124500
     21 C24          3.3250    -5.9360     2.4630 ca         1 CXQ      -0.130500
     22 C18          3.7600    -4.6370     2.2750 ca         1 CXQ      -0.110250
     23 C4           4.7230    -4.3610     1.3220 ca         1 CXQ      -0.095800
     24 H1          -0.3610    -0.0510    -1.0200 h1         1 CXQ       0.032700
     25 H2          -0.3610     0.9090     0.4650 h1         1 CXQ       0.032700
     26 H3          -0.3610    -0.8580     0.5550 h1         1 CXQ       0.032700
     27 H5           1.4800     0.7000     2.0300 h1         1 CXQ       0.067200
     28 H6           2.6670    -1.7520     2.4920 hc         1 CXQ       0.055950
     29 H7           0.8980    -1.5860     2.3860 hc         1 CXQ       0.055950
     30 H8           0.8970    -2.8280     0.4540 hc         1 CXQ       0.055950
     31 H9           2.6650    -2.9950     0.5610 hc         1 CXQ       0.055950
     32 H10          1.4820    -1.5560    -1.4780 h1         1 CXQ       0.067200
     33 H11          3.9230     0.3750     2.2960 hc         1 CXQ       0.053700
     34 H12          3.6630     1.2280     0.7670 hc         1 CXQ       0.053700
     35 H13          5.2360    -0.5960     0.3850 h1         1 CXQ       0.040700
     36 H14          3.6640    -0.1880    -1.4350 hc         1 CXQ       0.053700
     37 H15          3.9230    -1.9330    -1.2930 hc         1 CXQ       0.053700
     38 H16          5.5770    -2.8350     0.1090 h1         1 CXQ       0.049700
     39 H17          7.8640    -2.9410     0.6850 ha         1 CXQ       0.133750
     40 H18          9.6560    -2.4330     2.3010 ha         1 CXQ       0.129750
     41 H19          9.0880    -1.8430     4.6260 ha         1 CXQ       0.129000
     42 H20          6.7280    -1.7570     5.3340 ha         1 CXQ       0.129750
     43 H21          4.9370    -2.2620     3.7190 ha         1 CXQ       0.133750
     44 H23          5.2300    -7.4850     0.1450 ha         1 CXQ       0.129750
     45 H24          3.5120    -7.9770     1.8450 ha         1 CXQ       0.129000
     46 H25          2.5700    -6.1520     3.2090 ha         1 CXQ       0.129750
     47 H26          3.3460    -3.8350     2.8750 ha         1 CXQ       0.133750
     48 H22          6.0060    -5.1680    -0.1900 ha         1 CXQ       0.133750
@<TRIPOS>BOND
     1    15    16 ar
     2    15    14 ar
     3    16    17 ar
     4    14    13 ar
     5    17    12 ar
     6    13    12 ar
     7    12    11 1
     8    18    19 ar
     9    18    23 ar
    10    19    20 ar
    11    11    23 1
    12    11    10 1
    13    23    22 ar
    14    10     8 1
    15    20    21 ar
    16    22    21 ar
    17     8     7 1
    18     8     9 1
    19     7     3 1
    20     9     6 1
    21     3     2 1
    22     3     4 1
    23     6     2 1
    24     6     5 1
    25     2     1 1
    26     4     5 1
    27     1    24 1
    28     1    25 1
    29     1    26 1
    30     3    27 1
    31     4    28 1
    32     4    29 1
    33     5    30 1
    34     5    31 1
    35     6    32 1
    36     7    33 1
    37     7    34 1
    38     8    35 1
    39     9    36 1
    40     9    37 1
    41    11    38 1
    42    13    39 1
    43    14    40 1
    44    15    41 1
    45    16    42 1
    46    17    43 1
    47    18    48 1
    48    19    44 1
    49    20    45 1
    50    21    46 1
    51    22    47 1
@<TRIPOS>SUBSTRUCTURE
     1 CXQ         1 TEMP              0 ****  ****    0 ROOT
