@<TRIPOS>MOLECULE
CXS
   32    32     1     0     0
SMALL
bcc


@<TRIPOS>ATOM
      1 S            0.0000     0.0000     0.0000 s6         1 CXS       0.950800
      2 O1           1.4210     0.0000     0.0000 o          1 CXS      -0.659200
      3 O2          -0.7530     0.0000     1.2040 o          1 CXS      -0.659200
      4 O3          -0.3360     1.3530    -0.6090 o          1 CXS      -0.659200
      5 C1          -0.6690    -1.1760    -1.2070 c3         1 CXS      -0.053600
      6 C2          -0.4040    -2.6050    -0.7290 c3         1 CXS       0.001600
      7 C3          -0.9690    -3.5960    -1.7470 c3         1 CXS       0.124800
      8 N           -0.7150    -4.9680    -1.2890 n7         1 CXS      -0.580200
      9 C4          -1.2790    -5.8650    -2.3050 c3         1 CXS       0.110500
     10 C5          -0.4740    -7.1660    -2.3420 c3         1 CXS      -0.027400
     11 C6          -1.0620    -8.1000    -3.4000 c3         1 CXS      -0.022400
     12 C7          -2.5180    -8.4110    -3.0550 c3         1 CXS      -0.024400
     13 C8          -3.3230    -7.1110    -3.0190 c3         1 CXS      -0.022400
     14 C9          -2.7350    -6.1760    -1.9600 c3         1 CXS      -0.027400
     15 H11         -1.7360    -1.0210    -1.3080 h1         1 CXS       0.048200
     16 H12         -0.1890    -1.0210    -2.1660 h1         1 CXS       0.048200
     17 H21          0.6630    -2.7590    -0.6280 hc         1 CXS       0.020700
     18 H22         -0.8840    -2.7590     0.2300 hc         1 CXS       0.020700
     19 H31         -0.4890    -3.4410    -2.7060 h1         1 CXS       0.004700
     20 H32         -2.0360    -3.4410    -1.8480 h1         1 CXS       0.004700
     21 HN           0.2720    -5.1190    -1.2200 hn         1 CXS       0.254800
     22 H4          -1.2350    -5.3890    -3.2770 h1         1 CXS       0.014700
     23 H51         -0.5210    -7.6460    -1.3720 hc         1 CXS       0.020700
     24 H52          0.5570    -6.9440    -2.5910 hc         1 CXS       0.020700
     25 H61         -0.4930    -9.0220    -3.4220 hc         1 CXS       0.008700
     26 H62         -1.0170    -7.6190    -4.3700 hc         1 CXS       0.008700
     27 H71         -2.5630    -8.8890    -2.0830 hc         1 CXS       0.008200
     28 H72         -2.9340    -9.0710    -3.8070 hc         1 CXS       0.008200
     29 H81         -3.2760    -6.6310    -3.9890 hc         1 CXS       0.008700
     30 H82         -4.3540    -7.3320    -2.7700 hc         1 CXS       0.008700
     31 H91         -2.7800    -6.6570    -0.9910 hc         1 CXS       0.020700
     32 H92         -3.3040    -5.2550    -1.9380 hc         1 CXS       0.020700
@<TRIPOS>BOND
     1     1     2 1   
     2     1     3 1   
     3     1     4 1   
     4     1     5 1   
     5     5     6 1   
     6     5    15 1   
     7     5    16 1   
     8     6     7 1   
     9     6    17 1   
    10     6    18 1   
    11     7     8 1   
    12     7    19 1   
    13     7    20 1   
    14     8     9 1   
    15     8    21 1   
    16     9    10 1   
    17     9    14 1   
    18     9    22 1   
    19    10    11 1   
    20    10    23 1   
    21    10    24 1   
    22    11    12 1   
    23    11    25 1   
    24    11    26 1   
    25    12    13 1   
    26    12    27 1   
    27    12    28 1   
    28    13    14 1   
    29    13    29 1   
    30    13    30 1   
    31    14    31 1   
    32    14    32 1   
@<TRIPOS>SUBSTRUCTURE
     1 CXS         1 TEMP              0 ****  ****    0 ROOT
