@<TRIPOS>MOLECULE
CXU
   49    52     1     0     0
SMALL
bcc


@<TRIPOS>ATOM
      1 CL          2.0190   -0.7280    0.0000 cl        1 CXU     -0.163400
      2 C1          5.9890    1.3310    7.1760 c         1 CXU      0.581900
      3 O1          5.2550    1.3170    8.1600 o         1 CXU     -0.511100
      4 C2          5.5540    0.9060    5.7780 c3        1 CXU     -0.011300
      5 N2          4.1800    0.4600    5.6970 n         1 CXU     -0.531900
      6 C3          5.8260    2.0760    4.7930 c3        1 CXU      0.222600
      7 S4          5.5910    3.7070    5.5560 ss        1 CXU     -0.345200
      8 C5          6.9050    4.4990    4.5700 c3        1 CXU      0.075100
      9 C6          7.3620    3.3950    3.5730 c3        1 CXU      0.121500
     10 N7          7.1730    2.1010    4.2320 n3        1 CXU     -0.786200
     11 C8          6.6540    3.5530    2.2210 c         1 CXU      0.607100
     12 C21         3.7600   -0.1600    4.5150 c         1 CXU      0.700700
     13 O21         4.5320   -0.8870    3.8640 o         1 CXU     -0.570100
     14 C22         2.3810    0.1000    4.0770 cc        1 CXU     -0.395200
     15 C23         1.1600   -0.0790    4.6990 cd        1 CXU      0.329000
     16 O24         0.1640    0.3650    3.7980 os        1 CXU     -0.114100
     17 N25         0.7090    0.8030    2.6790 nd        1 CXU     -0.314300
     18 C26         2.0460    0.6730    2.7610 cc        1 CXU      0.391100
     19 C28         3.0520    1.0200    1.7590 ce        1 CXU     -0.137000
     20 C29         3.4470   -0.0790    0.8240 c3        1 CXU      0.113100
     21 C30         4.4470    0.3430   -0.1920 c2        1 CXU     -0.136200
     22 C31         5.0960    1.5100   -0.1490 c2        1 CXU     -0.170200
     23 C32         4.8600    2.5230    0.9230 c3        1 CXU      0.223500
     24 C33         3.6560    2.2180    1.7650 c2        1 CXU     -0.152200
     25 C51         6.3360    5.7360    3.9260 c3        1 CXU     -0.091100
     26 C52         8.0550    4.8620    5.4830 c3        1 CXU     -0.091100
     27 O81         6.6760    4.5130    1.4550 o         1 CXU     -0.516000
     28 O82         5.9800    2.4250    1.8390 os        1 CXU     -0.460900
     29 H2          3.5200    1.0350    6.1740 hn        1 CXU      0.311500
     30 HN2         6.2040    0.0210    5.4850 h1        1 CXU      0.116700
     31 H3          5.0600    2.0170    3.9580 h2        1 CXU      0.071700
     32 H6          7.3100    1.3380    3.5920 hn        1 CXU      0.399800
     33 HN7         8.4670    3.5090    3.3610 h1        1 CXU      0.115700
     34 H27         1.4780   -0.4220    6.7700 hc        1 CXU      0.078033
     35 H27A       -0.2590   -0.1290    6.2880 hc        1 CXU      0.078033
     36 H27B        0.5390   -1.7140    5.8970 hc        1 CXU      0.078033
     37 H30         3.8610   -0.9380    1.4310 h1        1 CXU      0.124700
     38 H31         4.6300   -0.3850   -1.0010 ha        1 CXU      0.150000
     39 H32         5.8570    1.7820   -0.8950 ha        1 CXU      0.146000
     40 H33         4.8040    3.5600    0.4880 h1        1 CXU      0.099700
     41 H51         5.3900    5.5080    3.3760 hc        1 CXU      0.056533
     42 H51A        7.0690    6.1670    3.1980 hc        1 CXU      0.056533
     43 H51B        6.1140    6.5030    4.7080 hc        1 CXU      0.056533
     44 H52         8.8440    5.4080    4.9080 hc        1 CXU      0.056533
     45 H52A        8.5090    3.9490    5.9370 hc        1 CXU      0.056533
     46 H52B        7.6930    5.5270    6.3050 hc        1 CXU      0.056533
     47 H22         3.3450    3.0220    2.4500 ha        1 CXU      0.147000
     48 C27         0.7050   -0.6090    5.9820 c3        1 CXU     -0.154400
     49 H1          7.0570    1.6360    7.2200 h4        1 CXU      0.030200
@<TRIPOS>BOND
     1    1   20 1
     2    2    3 2
     3    2    4 1
     4    2   49 1
     5    4    5 1
     6    4    6 1
     7    4   30 1
     8    5   12 1
     9    5   29 1
    10    6    7 1
    11    6   10 1
    12    6   31 1
    13    7    8 1
    14    8    9 1
    15    8   25 1
    16    8   26 1
    17    9   10 1
    18    9   11 1
    19    9   33 1
    20   10   32 1
    21   11   27 2
    22   11   28 1
    23   12   13 2
    24   12   14 1
    25   14   15 2
    26   14   18 1
    27   15   16 1
    28   15   48 1
    29   16   17 1
    30   17   18 2
    31   18   19 1
    32   19   20 1
    33   19   24 2
    34   20   21 1
    35   20   37 1
    36   21   22 2
    37   21   38 1
    38   22   23 1
    39   22   39 1
    40   23   24 1
    41   23   28 1
    42   23   40 1
    43   24   47 1
    44   25   41 1
    45   25   42 1
    46   25   43 1
    47   26   44 1
    48   26   45 1
    49   26   46 1
    50   34   48 1
    51   35   48 1
    52   36   48 1
@<TRIPOS>SUBSTRUCTURE
     1 CXU         1 TEMP              0 ****  ****    0 ROOT
