@<TRIPOS>MOLECULE
CXV
   49    52     1     0     0
SMALL
bcc


@<TRIPOS>ATOM
      1 CL          2.0770    1.7430   -0.1960 cl        1 CXV     -0.163400
      2 C1          2.5210   -5.4210    5.4560 c         1 CXV      0.560900
      3 O1          1.5080   -5.0660    6.0550 o         1 CXV     -0.509100
      4 C2          3.2460   -4.5520    4.4310 c3        1 CXV      0.003700
      5 N2          2.4620   -3.4390    3.9740 n         1 CXV     -0.554900
      6 C3          3.7880   -5.5010    3.3210 c3        1 CXV      0.270600
      7 S4          2.5210   -6.7140    2.7880 ss        1 CXV     -0.400200
      8 C5          2.5700   -6.2300    1.0390 c3        1 CXV      0.052100
      9 C6          3.2720   -4.8480    1.0950 c3        1 CXV      0.080500
     10 N7          4.2730   -4.7940    2.1570 n3        1 CXV     -0.777200
     11 C8          3.8640   -4.4100   -0.2300 c         1 CXV      0.654100
     12 C21         3.0280   -2.2030    3.7090 c         1 CXV      0.707700
     13 O21         4.2600   -2.0300    3.7390 o         1 CXV     -0.571100
     14 C22         2.0820   -1.0990    3.4530 cc        1 CXV     -0.376200
     15 C23         1.3770   -0.4230    4.4390 cd        1 CXV      0.314000
     16 O24         0.6520    0.6080    3.8080 os        1 CXV     -0.100100
     17 N25         0.8720    0.5940    2.5140 nd        1 CXV     -0.344300
     18 C26         1.7300   -0.4100    2.2040 cc        1 CXV      0.407100
     19 C28         2.1360   -0.7270    0.8380 ce        1 CXV     -0.145000
     20 C29         1.4850    0.0690   -0.2530 c3        1 CXV      0.121100
     21 C30         1.7310   -0.4630   -1.6180 c2        1 CXV     -0.154200
     22 C31         2.5670   -1.4680   -1.8850 c2        1 CXV     -0.149200
     23 C32         3.3660   -2.1470   -0.8210 c3        1 CXV      0.229500
     24 C33         3.0300   -1.6920    0.5640 c2        1 CXV     -0.164200
     25 C51         3.3560   -7.2450    0.2480 c3        1 CXV     -0.090100
     26 C52         1.1610   -6.1000    0.5150 c3        1 CXV     -0.090100
     27 O81         3.0540   -3.5560   -0.9600 os        1 CXV     -0.462900
     28 O82         4.9290   -4.7410   -0.7350 o         1 CXV     -0.461000
     29 H2          1.4750   -3.5500    3.9560 hn        1 CXV      0.330500
     30 HN2         4.1690   -4.1290    4.9480 h1        1 CXV      0.108700
     31 H3          4.6170   -6.0960    3.7960 h2        1 CXV      0.084700
     32 H6          5.1550   -5.1630    1.8420 hn        1 CXV      0.392800
     33 HN7         2.4670   -4.0890    1.3570 h1        1 CXV      0.107700
     34 H27         1.1250   -1.6100    6.1830 hc        1 CXV      0.077700
     35 H27A        2.1640   -0.1290    6.3860 hc        1 CXV      0.077700
     36 H27B        0.3580    0.0430    6.2530 hc        1 CXV      0.077700
     37 H30         0.3760    0.1440   -0.0770 h1        1 CXV      0.103700
     38 H31         1.1760    0.0480   -2.4220 ha        1 CXV      0.149000
     39 H32         2.7090   -1.8650   -2.9020 ha        1 CXV      0.153000
     40 H33         4.4700   -2.0060   -1.0150 h1        1 CXV      0.086700
     41 H51         4.4180   -7.2830    0.5910 hc        1 CXV      0.055533
     42 H51A        2.9050   -8.2610    0.3640 hc        1 CXV      0.055533
     43 H51B        3.3490   -6.9730   -0.8380 hc        1 CXV      0.055533
     44 H52         0.6940   -7.1090    0.4060 hc        1 CXV      0.055533
     45 H52A        1.1780   -5.6010   -0.4870 hc        1 CXV      0.055533
     46 H52B        0.5320   -5.4890    1.2060 hc        1 CXV      0.055533
     47 H22         3.5740   -2.2160    1.3700 ha        1 CXV      0.164000
     48 C27         1.2440   -0.5360    5.8910 c3        1 CXV     -0.154400
     49 H1          3.0090   -6.4040    5.6410 h4        1 CXV      0.018200
@<TRIPOS>BOND
     1    1   20 1
     2    2    3 2
     3    2    4 1
     4    2   49 1
     5    4    5 1
     6    4    6 1
     7    4   30 1
     8    5   12 1
     9    5   29 1
    10    6    7 1
    11    6   10 1
    12    6   31 1
    13    7    8 1
    14    8    9 1
    15    8   25 1
    16    8   26 1
    17    9   10 1
    18    9   11 1
    19    9   33 1
    20   10   32 1
    21   11   27 1
    22   11   28 2
    23   12   13 2
    24   12   14 1
    25   14   15 2
    26   14   18 1
    27   15   16 1
    28   15   48 1
    29   16   17 1
    30   17   18 2
    31   18   19 1
    32   19   20 1
    33   19   24 2
    34   20   21 1
    35   20   37 1
    36   21   22 2
    37   21   38 1
    38   22   23 1
    39   22   39 1
    40   23   24 1
    41   23   27 1
    42   23   40 1
    43   24   47 1
    44   25   41 1
    45   25   42 1
    46   25   43 1
    47   26   44 1
    48   26   45 1
    49   26   46 1
    50   34   48 1
    51   35   48 1
    52   36   48 1
@<TRIPOS>SUBSTRUCTURE
     1 CXV         1 TEMP              0 ****  ****    0 ROOT
