@<TRIPOS>MOLECULE
molecule
   54    56     1     0     0
SMALL
bcc


@<TRIPOS>ATOM
      1 O22          0.0000     0.0000     0.0000 oh         1 CXW      -0.493100
      2 C22          1.3580     0.0000     0.0000 ca         1 CXW       0.146100
      3 C23          2.0530     0.0000     1.2010 ca         1 CXW      -0.202000
      4 C24          3.4350     0.0010     1.1980 ca         1 CXW      -0.098000
      5 C25          4.1250     0.0010    -0.0000 ca         1 CXW      -0.155000
      6 C26          3.4350     0.0020    -1.1980 ca         1 CXW      -0.099000
      7 C21          2.0530    -0.0060    -1.2010 ca         1 CXW      -0.110300
      8 C13          1.3010    -0.0050    -2.5070 c3         1 CXW       0.214100
      9 N12          0.8420     1.3580    -2.8070 n7         1 CXW      -0.806200
     10 C11          0.1030     1.3960    -4.0760 c3         1 CXW       0.160800
     11 C10         -0.3580     2.8280    -4.3550 c3         1 CXW       0.134400
     12 O09          0.7820     3.6650    -4.5550 os         1 CXW      -0.434600
     13 C4'          0.4600     5.0310    -4.8230 c3         1 CXW       0.140100
     14 C5'          0.3370     5.2640    -6.3450 c3         1 CXW       0.111800
     15 N1'          0.9140     6.6160    -6.5640 n7         1 CXW      -0.799200
     16 C2'          2.0860     6.6650    -5.6530 c3         1 CXW       0.151800
     17 C3'          1.6110     5.9530    -4.3680 c3         1 CXW      -0.059700
     18 C08          2.7490     5.1250    -3.7670 c3         1 CXW      -0.113700
     19 C06          3.8390     6.0460    -3.2830 ca         1 CXW       0.476600
     20 C05          4.2710     5.9610    -1.9760 ca         1 CXW      -0.309300
     21 C04          5.2800     6.8080    -1.5360 ca         1 CXW      -0.005300
     22 C07          5.7760     6.7440    -0.1150 c3         1 CXW      -0.050800
     23 N01          4.3720     6.9190    -4.1170 nb         1 CXW      -0.777000
     24 C02          5.3320     7.7480    -3.7360 ca         1 CXW       0.709200
     25 N02          5.8640     8.6510    -4.6470 nv         1 CXW      -1.016500
     26 C03          5.8200     7.7130    -2.4330 ca         1 CXW      -0.329300
     27 H1          -0.3140    -0.6090     0.6470 ho         1 CXW       0.414000
     28 H2           1.5130    -0.0010     2.1400 ha         1 CXW       0.133000
     29 H3           3.9780     0.0010     2.1350 ha         1 CXW       0.130000
     30 H4           5.2080     0.0040    -0.0000 ha         1 CXW       0.131000
     31 H5           3.9780    -0.0000    -2.1350 ha         1 CXW       0.133000
     32 H6           0.4460    -0.6660    -2.4310 h1         1 CXW       0.037200
     33 H7           1.9540    -0.3500    -3.3000 h1         1 CXW       0.037200
     34 H8           1.6310     1.9710    -2.8620 hn         1 CXW       0.365800
     35 H10         -0.7600     0.7450    -4.0110 h1         1 CXW       0.038700
     36 H11          0.7480     1.0610    -4.8800 h1         1 CXW       0.038700
     37 H12         -0.9760     2.8410    -5.2440 h1         1 CXW       0.034700
     38 H13         -0.9300     3.1930    -3.5110 h1         1 CXW       0.034700
     39 H14         -0.4620     5.3110    -4.3260 h1         1 CXW       0.051700
     40 H15         -0.7040     5.2450    -6.6450 h1         1 CXW       0.044200
     41 H16          0.9070     4.5200    -6.8860 h1         1 CXW       0.044200
     42 H17          1.2240     6.6970    -7.5120 hn         1 CXW       0.345800
     43 H19          2.9230     6.1340    -6.0900 h1         1 CXW       0.054700
     44 H20          2.3530     7.6920    -5.4370 h1         1 CXW       0.054700
     45 H21          1.2480     6.6790    -3.6510 hc         1 CXW       0.067700
     46 H22          3.1480     4.4580    -4.5220 hc         1 CXW       0.067200
     47 H23          2.3710     4.5430    -2.9350 hc         1 CXW       0.067200
     48 H24          3.7290     5.3490    -1.2650 ha         1 CXW       0.140000
     49 H25          6.7690     7.1750    -0.0590 hc         1 CXW       0.046700
     50 H26          5.8130     5.7100     0.2080 hc         1 CXW       0.046700
     51 H27          5.1050     7.3000     0.5280 hc         1 CXW       0.046700
     52 H28          6.4850     9.3710    -4.3340 hn         1 CXW       0.437800
     53 H29          5.6400     8.5720    -5.6190 hn         1 CXW       0.437800
     54 H30          6.6070     8.3900    -2.1240 ha         1 CXW       0.132000
@<TRIPOS>BOND
     1    22    21 1
     2    21    26 ar
     3    21    20 ar
     4    26    24 ar
     5    20    19 ar
     6    24    25 1
     7    24    23 ar
     8    19    23 ar
     9    19    18 1
    10    17    16 1
    11    17    13 1
    12    17    18 1
    13    16    15 1
    14    13    12 1
    15    13    14 1
    16    12    11 1
    17    11    10 1
    18    10     9 1
    19    15    14 1
    20     9     8 1
    21     6     5 ar
    22     6     7 ar
    23     5     4 ar
    24     8     7 1
    25     7     2 ar
    26     4     3 ar
    27     2     3 ar
    28     2     1 1
    29     1    27 1
    30     3    28 1
    31     4    29 1
    32     5    30 1
    33     6    31 1
    34     8    32 1
    35     8    33 1
    36     9    34 1
    37    10    35 1
    38    10    36 1
    39    11    37 1
    40    11    38 1
    41    13    39 1
    42    14    40 1
    43    14    41 1
    44    15    42 1
    45    16    43 1
    46    16    44 1
    47    17    45 1
    48    18    46 1
    49    18    47 1
    50    20    48 1
    51    22    49 1
    52    22    50 1
    53    22    51 1
    54    25    52 1
    55    25    53 1
    56    26    54 1
@<TRIPOS>SUBSTRUCTURE
     1 CXW         1 TEMP              0 ****  ****    0 ROOT
