@<TRIPOS>MOLECULE
CXW
   54    56     1     0     0
SMALL
bcc


@<TRIPOS>ATOM
      1 O22          0.0000     0.0000     0.0000 oh         1 CXW      -0.472100
      2 C22          1.3580     0.0000     0.0000 ca         1 CXW       0.165100
      3 C23          2.0530     0.0000     1.2010 ca         1 CXW      -0.186000
      4 C24          3.4350     0.0010     1.1980 ca         1 CXW      -0.065000
      5 C25          4.1250     0.0010    -0.0000 ca         1 CXW      -0.135000
      6 C26          3.4350     0.0020    -1.1980 ca         1 CXW      -0.066000
      7 C21          2.0530    -0.0060    -1.2010 ca         1 CXW      -0.131300
      8 C13          1.3010    -0.0050    -2.5070 c3         1 CXW       0.213100
      9 N12          0.8420     1.3580    -2.8070 n7         1 CXW      -0.578200
     10 C11          0.1030     1.3960    -4.0760 c3         1 CXW       0.140800
     11 C10         -0.3580     2.8280    -4.3550 c3         1 CXW       0.204400
     12 O09          0.7820     3.6650    -4.5550 os         1 CXW      -0.413600
     13 C4'          0.4600     5.0310    -4.8230 c3         1 CXW       0.179100
     14 C5'          0.3370     5.2640    -6.3450 c3         1 CXW       0.108800
     15 N1'          0.9140     6.6160    -6.5640 n7         1 CXW      -0.587200
     16 C2'          2.0860     6.6650    -5.6530 c3         1 CXW       0.141800
     17 C3'          1.6110     5.9530    -4.3680 c3         1 CXW      -0.044700
     18 C08          2.7490     5.1250    -3.7670 c3         1 CXW      -0.067700
     19 C06          3.8390     6.0460    -3.2830 ca         1 CXW       0.431600
     20 C05          4.2710     5.9610    -1.9760 ca         1 CXW      -0.288300
     21 C04          5.2800     6.8080    -1.5360 ca         1 CXW      -0.004300
     22 C07          5.7760     6.7440    -0.1150 c3         1 CXW       0.059200
     23 N01          4.3720     6.9190    -4.1170 nb         1 CXW      -0.662000
     24 C02          5.3320     7.7480    -3.7360 ca         1 CXW       0.515200
     25 N02          5.8640     8.6510    -4.6470 nv         1 CXW      -0.538500
     26 C03          5.8200     7.7130    -2.4330 ca         1 CXW      -0.313300
     27 H1          -0.3140    -0.6090     0.6470 ho         1 CXW       0.396000
     28 H2           1.5130    -0.0010     2.1400 ha         1 CXW       0.110000
     29 H3           3.9780     0.0010     2.1350 ha         1 CXW       0.100000
     30 H4           5.2080     0.0040    -0.0000 ha         1 CXW       0.105000
     31 H5           3.9780    -0.0000    -2.1350 ha         1 CXW       0.105000
     32 H6           0.4460    -0.6660    -2.4310 h1         1 CXW       0.009200
     33 H7           1.9540    -0.3500    -3.3000 h1         1 CXW       0.009200
     34 H8           1.6310     1.9710    -2.8620 hn         1 CXW       0.265800
     35 H10         -0.7600     0.7450    -4.0110 h1         1 CXW       0.010200
     36 H11          0.7480     1.0610    -4.8800 h1         1 CXW       0.010200
     37 H12         -0.9760     2.8410    -5.2440 h1         1 CXW      -0.000800
     38 H13         -0.9300     3.1930    -3.5110 h1         1 CXW      -0.000800
     39 H14         -0.4620     5.3110    -4.3260 h1         1 CXW       0.019700
     40 H15         -0.7040     5.2450    -6.6450 h1         1 CXW       0.016200
     41 H16          0.9070     4.5200    -6.8860 h1         1 CXW       0.016200
     42 H17          1.2240     6.6970    -7.5120 hn         1 CXW       0.250800
     43 H19          2.9230     6.1340    -6.0900 h1         1 CXW       0.026200
     44 H20          2.3530     7.6920    -5.4370 h1         1 CXW       0.026200
     45 H21          1.2480     6.6790    -3.6510 hc         1 CXW       0.038700
     46 H22          3.1480     4.4580    -4.5220 hc         1 CXW       0.035200
     47 H23          2.3710     4.5430    -2.9350 hc         1 CXW       0.035200
     48 H24          3.7290     5.3490    -1.2650 ha         1 CXW       0.123000
     49 H25          6.7690     7.1750    -0.0590 hc         1 CXW       0.010033
     50 H26          5.8130     5.7100     0.2080 hc         1 CXW       0.010033
     51 H27          5.1050     7.3000     0.5280 hc         1 CXW       0.010033
     52 H28          6.4850     9.3710    -4.3340 hn         1 CXW       0.268800
     53 H29          5.6400     8.5720    -5.6190 hn         1 CXW       0.268800
     54 H30          6.6070     8.3900    -2.1240 ha         1 CXW       0.118000
@<TRIPOS>BOND
     1     1     2 1   
     2     1    27 1   
     3     2     3 ar  
     4     2     7 ar  
     5     3     4 ar  
     6     3    28 1   
     7     4     5 ar  
     8     4    29 1   
     9     5     6 ar  
    10     5    30 1   
    11     6     7 ar  
    12     6    31 1   
    13     7     8 1   
    14     8     9 1   
    15     8    32 1   
    16     8    33 1   
    17     9    10 1   
    18     9    34 1   
    19    10    11 1   
    20    10    35 1   
    21    10    36 1   
    22    11    12 1   
    23    11    37 1   
    24    11    38 1   
    25    12    13 1   
    26    13    14 1   
    27    13    17 1   
    28    13    39 1   
    29    14    15 1   
    30    14    40 1   
    31    14    41 1   
    32    15    16 1   
    33    15    42 1   
    34    16    17 1   
    35    16    43 1   
    36    16    44 1   
    37    17    18 1   
    38    17    45 1   
    39    18    19 1   
    40    18    46 1   
    41    18    47 1   
    42    19    20 ar  
    43    19    23 ar  
    44    20    21 ar  
    45    20    48 1   
    46    21    22 1   
    47    21    26 ar  
    48    22    49 1   
    49    22    50 1   
    50    22    51 1   
    51    23    24 ar  
    52    24    25 1   
    53    24    26 ar  
    54    25    52 1   
    55    25    53 1   
    56    26    54 1   
@<TRIPOS>SUBSTRUCTURE
     1 CXW         1 TEMP              0 ****  ****    0 ROOT
