@<TRIPOS>MOLECULE
molecule
   45    47     1     0     0
SMALL
bcc


@<TRIPOS>ATOM
      1 C1           0.0000     0.0000     0.0000 ca         1 CXX      -0.167000
      2 C2           1.3770     0.0000     0.0000 ca         1 CXX       0.049400
      3 C3           2.0540     0.0000     1.2060 ca         1 CXX      -0.148000
      4 C4           1.3500    -0.0130     2.3880 ca         1 CXX      -0.103000
      5 C5          -0.6540    -0.0680     3.7840 c3         1 CXX      -0.020100
      6 C6          -2.1280    -0.3840     3.8100 c3         1 CXX      -0.033100
      7 C8          -4.5040     2.5120     3.3980 ca         1 CXX      -0.137000
      8 C9          -4.4320     2.7410     2.0340 ca         1 CXX      -0.121000
      9 C10         -3.6270     1.9400     1.2430 ca         1 CXX      -0.138000
     10 C11         -2.8960     0.9200     1.8360 ca         1 CXX       0.170600
     11 C13         -0.0480    -0.0190     2.4040 ca         1 CXX      -0.114300
     12 C14         -0.7190     0.0030     1.2010 ca         1 CXX       0.210600
     13 C17         -4.0080    -2.9580    -0.1760 c3         1 CXX       0.162800
     14 C18         -5.4590    -3.8630     1.5400 c3         1 CXX       0.150600
     15 C7          -3.7680     1.4960     3.9800 ca         1 CXX      -0.116000
     16 C12         -2.9520     0.7020     3.1880 ca         1 CXX      -0.100300
     17 C16         -3.2330    -2.0870     0.8140 c3         1 CXX      -0.108400
     18 C19         -5.0080    -5.1450    -0.4650 c3         1 CXX       0.150600
     19 N1          -2.1010     0.0640     1.0810 nh         1 CXX      -0.628400
     20 N2          -4.4680    -4.1790     0.5010 n3         1 CXX      -0.730600
     21 Cl2          2.2540    -0.0000    -1.4990 cl         1 CXX      -0.113400
     22 H1          -0.5340     0.0000    -0.9420 ha         1 CXX       0.146000
     23 H3           3.1370    -0.0000     1.2200 ha         1 CXX       0.142000
     24 H4           1.8910    -0.0130     3.3270 ha         1 CXX       0.135000
     25 H51         -0.5160     0.9050     4.2410 hc         1 CXX       0.053700
     26 H61         -2.2890    -1.2960     3.2480 hc         1 CXX       0.055700
     27 H8          -5.1350     3.1400     4.0150 ha         1 CXX       0.129000
     28 H9          -5.0120     3.5390     1.5870 ha         1 CXX       0.132000
     29 H10         -3.5640     2.1120     0.1750 ha         1 CXX       0.138000
     30 H171        -3.3630    -3.2260    -1.0040 h1         1 CXX       0.032200
     31 H172        -4.8640    -2.4080    -0.5490 h1         1 CXX       0.032200
     32 H181        -6.0370    -2.9990     1.2360 h1         1 CXX       0.032033
     33 H182        -4.9490    -3.6470     2.4710 h1         1 CXX       0.032033
     34 H183        -6.1200    -4.7100     1.6780 h1         1 CXX       0.032033
     35 H7          -3.8280     1.3220     5.0470 ha         1 CXX       0.132000
     36 H151        -2.0500    -1.0810    -0.6700 h1         1 CXX       0.049700
     37 H152        -3.6030    -0.3060    -0.3290 h1         1 CXX       0.049700
     38 H161        -3.8780    -1.8190     1.6420 hc         1 CXX       0.059200
     39 H162        -2.3770    -2.6370     1.1870 hc         1 CXX       0.059200
     40 H191        -5.2800    -6.0580     0.0510 h1         1 CXX       0.032033
     41 H192        -4.2570    -5.3640    -1.2140 h1         1 CXX       0.032033
     42 H193        -5.8850    -4.7250    -0.9430 h1         1 CXX       0.032033
     43 H52         -0.1400    -0.8400     4.3440 hc         1 CXX       0.053700
     44 H62         -2.4340    -0.4920     4.8440 hc         1 CXX       0.055700
     45 C15         -2.7540    -0.8170     0.1090 c3         1 CXX       0.237800
@<TRIPOS>BOND
     1     1    12 ar
     2     1     2 ar
     3     1    22 1
     4     2    21 1
     5     2     3 ar
     6     3     4 ar
     7     3    23 1
     8     4    11 ar
     9     4    24 1
    10     5    11 1
    11     5     6 1
    12     5    25 1
    13     6    16 1
    14     6    26 1
    15     7     8 ar
    16     7    15 ar
    17     7    27 1
    18     8     9 ar
    19     8    28 1
    20     9    10 ar
    21     9    29 1
    22    10    19 1
    23    10    16 ar
    24    11    12 ar
    25    12    19 1
    26    13    20 1
    27    13    17 1
    28    13    30 1
    29    13    31 1
    30    14    20 1
    31    14    32 1
    32    14    33 1
    33    14    34 1
    34    15    16 ar
    35    15    35 1
    36    45    17 1
    37    45    19 1
    38    45    36 1
    39    45    37 1
    40    17    38 1
    41    17    39 1
    42    18    20 1
    43    18    40 1
    44    18    41 1
    45    18    42 1
    46     5    43 1
    47     6    44 1
@<TRIPOS>SUBSTRUCTURE
     1 CXX         1 TEMP              0 ****  ****    0 ROOT
