@<TRIPOS>MOLECULE
CXZ
   47    50     1     0     0
SMALL
bcc


@<TRIPOS>ATOM
      1 C1          0.1200   -0.4640   -0.0430 ca        1 CXZ     -0.151000
      2 C2          1.5080   -0.3630   -0.0250 ca        1 CXZ     -0.083000
      3 C3          2.1040   -0.2190    1.2170 ca        1 CXZ      0.006100
      4 C4          1.3600   -0.1740    2.4320 ca        1 CXZ     -0.176900
      5 C5         -0.0200   -0.2710    2.4040 ca        1 CXZ     -0.135000
      6 C6         -0.6570   -0.4260    1.1470 ca        1 CXZ      0.128600
      7 N1         -2.0490   -0.6290    1.1120 nh        1 CXZ     -0.724600
      8 C7         -2.7530   -0.2800   -0.1030 c3        1 CXZ      0.178800
      9 C8         -4.2780   -0.1690    0.1280 c3        1 CXZ      0.162800
     10 N2         -5.0000    0.0620   -1.1140 n3        1 CXZ     -0.727600
     11 C9         -6.3920   -0.3630   -1.0240 c3        1 CXZ      0.132300
     12 C10        -7.1800   -0.0650   -2.3050 c3        1 CXZ      0.126400
     13 O1         -7.0610    1.2990   -2.6900 os        1 CXZ     -0.413600
     14 C11        -5.7030    1.6890   -2.8600 c3        1 CXZ      0.126400
     15 C12        -4.8780    1.4330   -1.5940 c3        1 CXZ      0.132300
     16 C13         2.4060   -0.0080    3.4580 cc        1 CXZ      0.415500
     17 N3          3.6050    0.0290    2.8510 nd        1 CXZ     -0.357200
     18 O2          3.4750   -0.0880    1.5380 os        1 CXZ     -0.008600
     19 C14         2.1630    0.0820    4.8870 ca        1 CXZ     -0.163900
     20 C15         1.2980   -0.8360    5.4920 ca        1 CXZ     -0.033000
     21 C16         1.0450   -0.7890    6.8620 ca        1 CXZ     -0.113600
     22 C17         1.6690    0.1930    7.6570 ca        1 CXZ      0.190100
     23 C18         2.5330    1.1270    7.0700 ca        1 CXZ     -0.253000
     24 C19         2.7740    1.0700    5.6910 ca        1 CXZ      0.198100
     25 O3          3.5890    1.9800    5.0700 oh        1 CXZ     -0.470100
     26 O4          1.4870    0.3170    9.0090 oh        1 CXZ     -0.486100
     27 CL         -0.0140   -1.9270    7.5540 cl        1 CXZ     -0.089400
     28 H1         -0.3790   -0.5880   -1.0180 ha        1 CXZ      0.144000
     29 H2          2.0990   -0.3950   -0.9500 ha        1 CXZ      0.156000
     30 H5         -0.5980   -0.2320    3.3380 ha        1 CXZ      0.144000
     31 HN1        -2.5070   -0.3090    1.9410 hn        1 CXZ      0.391800
     32 H7         -2.5550   -1.0950   -0.8570 h1        1 CXZ      0.049200
     33 H7A        -2.3690    0.6900   -0.5360 h1        1 CXZ      0.049200
     34 H8         -4.6420   -1.1390    0.5730 h1        1 CXZ      0.039700
     35 H8A        -4.4760    0.6480    0.8830 h1        1 CXZ      0.039700
     36 H9         -6.9200    0.1310   -0.1570 h1        1 CXZ      0.041700
     37 H9A        -6.4020   -1.4750   -0.8510 h1        1 CXZ      0.041700
     38 H10        -6.8350   -0.7250   -3.1440 h1        1 CXZ      0.055950
     39 H10A       -8.2770   -0.2110   -2.1240 h1        1 CXZ      0.055950
     40 H11        -5.7520    2.7890   -3.0730 h1        1 CXZ      0.055950
     41 H11A       -5.2630    1.1450   -3.7370 h1        1 CXZ      0.055950
     42 H12        -5.1950    2.1780   -0.8060 h1        1 CXZ      0.041700
     43 H12A       -3.7950    1.6210   -1.8330 h1        1 CXZ      0.041700
     44 H15         0.8160   -1.6080    4.8690 ha        1 CXZ      0.161000
     45 H18         3.0100    1.8900    7.7010 ha        1 CXZ      0.161000
     46 HO3         3.9740    2.5560    5.7490 ho        1 CXZ      0.427000
     47 HO4         0.8880   -0.3870    9.3060 ho        1 CXZ      0.436000
@<TRIPOS>BOND
     1    1    2 ar  
     2    1    6 ar  
     3    1   28 1   
     4    2    3 ar  
     5    2   29 1   
     6    3    4 ar  
     7    3   18 1   
     8    4    5 ar  
     9    4   16 1   
    10    5    6 ar  
    11    5   30 1   
    12    6    7 1   
    13    7    8 1   
    14    7   31 1   
    15    8    9 1   
    16    8   32 1   
    17    8   33 1   
    18    9   10 1   
    19    9   34 1   
    20    9   35 1   
    21   10   11 1   
    22   10   15 1   
    23   11   12 1   
    24   11   36 1   
    25   11   37 1   
    26   12   13 1   
    27   12   38 1   
    28   12   39 1   
    29   13   14 1   
    30   14   15 1   
    31   14   40 1   
    32   14   41 1   
    33   15   42 1   
    34   15   43 1   
    35   16   17 2   
    36   16   19 1   
    37   17   18 1   
    38   19   20 ar  
    39   19   24 ar  
    40   20   21 ar  
    41   20   44 1   
    42   21   22 ar  
    43   21   27 1   
    44   22   23 ar  
    45   22   26 1   
    46   23   24 ar  
    47   23   45 1   
    48   24   25 1   
    49   25   46 1   
    50   26   47 1   
@<TRIPOS>SUBSTRUCTURE
     1 CXZ         1 TEMP              0 ****  ****    0 ROOT
