@<TRIPOS>MOLECULE
CY6
   84    85     1     0     0
SMALL
bcc


@<TRIPOS>ATOM
      1 C5          0.3090   -1.0360    1.7370 c3        1 CY6     -0.167400
      2 C6          1.6630   -0.9740    1.1960 cc        1 CY6      0.327000
      3 O7          2.0100    0.2190    0.4910 os        1 CY6     -0.045100
      4 N8          3.2250    0.1620    0.0570 nc        1 CY6     -0.308300
      5 C9          3.7680   -1.0360    0.4270 cd        1 CY6      0.187800
      6 C10         2.7770   -1.8000    1.1710 cd        1 CY6     -0.300600
      7 C11         5.1200   -1.4860    0.1370 c         1 CY6      0.508600
      8 O12         5.6560   -2.5270    0.4890 o         1 CY6     -0.420100
      9 N13         5.9430   -0.5260   -0.7000 n4        1 CY6     -0.673800
     10 C14         7.2710   -1.0680   -1.1550 c3        1 CY6      0.020500
     11 C15         7.7880   -0.2800   -2.3850 c3        1 CY6     -0.077700
     12 C16         9.1290   -0.8350   -2.8210 c3        1 CY6     -0.116100
     13 C17         6.8020   -0.3470   -3.5340 c3        1 CY6     -0.116100
     14 C18         8.2990   -0.9830   -0.0140 c         1 CY6      0.567100
     15 O19         8.3290    0.0150    0.7090 o         1 CY6     -0.497100
     16 C20         9.1830   -2.1780    0.1420 c3        1 CY6     -0.181400
     17 C21        10.3600   -1.9070    1.0790 c3        1 CY6     -0.111700
     18 C22         9.9590   -2.1030    2.5330 c3        1 CY6     -0.055200
     19 C23        11.0340   -1.7150    3.4770 c2        1 CY6     -0.312200
     20 C24        11.1410   -2.1910    4.7320 c2        1 CY6     -0.027400
     21 C25        10.2210   -3.2140    5.2850 c3        1 CY6     -0.089900
     22 C26        12.1910   -1.6980    5.6550 c3        1 CY6     -0.089900
     23 C29        11.5470   -2.7200    0.6090 c         1 CY6      0.561100
     24 O30        12.0780   -2.6260   -0.4900 o         1 CY6     -0.427100
     25 N31        12.1880   -3.7050    1.5490 n4        1 CY6     -0.679800
     26 C32        11.5870   -5.0900    1.4020 c3        1 CY6      0.166700
     27 C33        11.8760   -5.8870    2.6370 c2        1 CY6     -0.208200
     28 C34        10.9090   -6.3560    3.4340 ce        1 CY6     -0.112200
     29 C35        11.2540   -7.1790    4.6150 c         1 CY6      0.609300
     30 O36        12.3800   -7.3760    5.0760 o         1 CY6     -0.505000
     31 O37        10.1640   -7.7320    5.2050 os        1 CY6     -0.428900
     32 C38        10.4170   -8.5770    6.3560 c3        1 CY6      0.140400
     33 C39         9.0690   -9.0900    6.7940 c3        1 CY6     -0.106100
     34 C40        12.1300   -5.8240    0.1630 c3        1 CY6     -0.087400
     35 C41        11.0540   -6.7130   -0.4240 c3        1 CY6     -0.144700
     36 C42        11.5990   -7.7080   -1.4590 c3        1 CY6     -0.093400
     37 C43        10.6960   -7.5520   -2.7040 c3        1 CY6      0.079000
     38 N44         9.8360   -6.4110   -2.4490 n         1 CY6     -0.543900
     39 C45        10.0070   -5.8910   -1.1940 c         1 CY6      0.704500
     40 O46         9.4200   -4.8810   -0.7420 o         1 CY6     -0.734500
     41 H51         0.3490   -1.1710    2.8500 hc        1 CY6      0.099033
     42 H52        -0.2580   -0.0960    1.5100 hc        1 CY6      0.099033
     43 H53        -0.2410   -1.9050    1.2910 hc        1 CY6      0.099033
     44 H10         2.9100   -2.7920    1.5970 ha        1 CY6      0.212000
     45 H13         6.1090    0.3290   -0.1430 hn        1 CY6      0.483300
     46 H14         7.1170   -2.1520   -1.4410 hx        1 CY6      0.136700
     47 H15         7.9340    0.7980   -2.0810 hc        1 CY6      0.086700
     48 H161        9.9020   -0.6790   -2.0300 hc        1 CY6      0.063033
     49 H162        9.0560   -1.9230   -3.0590 hc        1 CY6      0.063033
     50 H163        9.4710   -0.2980   -3.7420 hc        1 CY6      0.063033
     51 H171        5.9420    0.3520   -3.3880 hc        1 CY6      0.063033
     52 H172        7.3100   -0.0380   -4.4830 hc        1 CY6      0.063033
     53 H173        6.4160   -1.3850   -3.6760 hc        1 CY6      0.063033
     54 H201        9.5500   -2.5100   -0.8720 hc        1 CY6      0.126200
     55 H202        8.5570   -3.0320    0.5360 hc        1 CY6      0.126200
     56 H21        10.6870   -0.8270    0.9510 hc        1 CY6      0.132700
     57 H221        9.6220   -3.1610    2.7070 hc        1 CY6      0.074200
     58 H222        9.0630   -1.4410    2.7190 hc        1 CY6      0.074200
     59 H23        11.7010   -0.9050    3.1350 ha        1 CY6      0.141000
     60 H251       10.4460   -3.4220    6.3620 hc        1 CY6      0.064367
     61 H252        9.1600   -2.8640    5.2120 hc        1 CY6      0.064367
     62 H253       10.3120   -4.1760    4.7180 hc        1 CY6      0.064367
     63 H261       12.8960   -0.9920    5.1530 hc        1 CY6      0.064367
     64 H262       12.7760   -2.5560    6.0730 hc        1 CY6      0.064367
     65 H263       11.7090   -1.1610    6.5130 hc        1 CY6      0.064367
     66 H31        12.0690   -3.3890    2.5270 hn        1 CY6      0.471300
     67 H32        10.4680   -4.9280    1.2740 hx        1 CY6      0.127700
     68 H33        12.9390   -6.1170    2.8410 ha        1 CY6      0.180000
     69 H34         9.8320   -6.1870    3.2690 ha        1 CY6      0.164000
     70 H381       11.1060   -9.4040    6.0420 h1        1 CY6      0.065700
     71 H382       10.9140   -7.9550    7.1440 h1        1 CY6      0.065700
     72 H391        8.3950   -8.2450    7.0730 hc        1 CY6      0.059033
     73 H392        8.5830   -9.6760    5.9780 hc        1 CY6      0.059033
     74 H393        9.2100   -9.7520    7.6830 hc        1 CY6      0.059033
     75 H401       13.0150   -6.4530    0.4540 hc        1 CY6      0.087700
     76 H402       12.4740   -5.0960   -0.6210 hc        1 CY6      0.087700
     77 H41        10.5220   -7.2680    0.3960 hc        1 CY6      0.096700
     78 H421       12.6620   -7.4820   -1.7210 hc        1 CY6      0.080700
     79 H422       11.5520   -8.7550   -1.0710 hc        1 CY6      0.080700
     80 H431       10.0750   -8.4760   -2.8670 h1        1 CY6      0.075200
     81 H432       11.3100   -7.3670   -3.6280 h1        1 CY6      0.075200
     82 H44         9.1680   -6.0970   -3.1060 hn        1 CY6      0.347500
     83 H132        5.3920   -0.2630   -1.5310 hn        1 CY6      0.483300
     84 H312       13.1940   -3.7630    1.3430 hn        1 CY6      0.471300
@<TRIPOS>BOND
     1    1    2 1
     2    1   41 1
     3    1   42 1
     4    1   43 1
     5    2    3 1
     6    2    6 2
     7    3    4 1
     8    4    5 2
     9    5    6 1
    10    5    7 1
    11    6   44 1
    12    7    8 2
    13    7    9 1
    14    9   10 1
    15    9   45 1
    16    9   83 1
    17   10   11 1
    18   10   14 1
    19   10   46 1
    20   11   12 1
    21   11   13 1
    22   11   47 1
    23   12   48 1
    24   12   49 1
    25   12   50 1
    26   13   51 1
    27   13   52 1
    28   13   53 1
    29   14   15 2
    30   14   16 1
    31   16   17 1
    32   16   54 1
    33   16   55 1
    34   17   18 1
    35   17   23 1
    36   17   56 1
    37   18   19 1
    38   18   57 1
    39   18   58 1
    40   19   20 2
    41   19   59 1
    42   20   21 1
    43   20   22 1
    44   21   60 1
    45   21   61 1
    46   21   62 1
    47   22   63 1
    48   22   64 1
    49   22   65 1
    50   23   24 2
    51   23   25 1
    52   25   26 1
    53   25   66 1
    54   25   84 1
    55   26   27 1
    56   26   34 1
    57   26   67 1
    58   27   28 2
    59   27   68 1
    60   28   29 1
    61   28   69 1
    62   29   30 2
    63   29   31 1
    64   31   32 1
    65   32   33 1
    66   32   70 1
    67   32   71 1
    68   33   72 1
    69   33   73 1
    70   33   74 1
    71   34   35 1
    72   34   75 1
    73   34   76 1
    74   35   36 1
    75   35   39 1
    76   35   77 1
    77   36   37 1
    78   36   78 1
    79   36   79 1
    80   37   38 1
    81   37   80 1
    82   37   81 1
    83   38   39 1
    84   38   82 1
    85   39   40 2
@<TRIPOS>SUBSTRUCTURE
     1 CY6         1 TEMP              0 ****  ****    0 ROOT
