@<TRIPOS>MOLECULE
molecule
   83    86     1     0     0
SMALL
bcc


@<TRIPOS>ATOM
      1 CAN          0.0000     0.0000     0.0000 ca         1 CY7      -0.221300
      2 CAL          1.3860     0.0000     0.0000 ca         1 CY7      -0.095000
      3 CAK          2.0460     0.0000     1.2190 ca         1 CY7      -0.255300
      4 CAM          1.3050    -0.0010     2.3860 ca         1 CY7       0.419200
      5 NAZ         -0.0140    -0.0010     2.3480 nb         1 CY7      -0.697000
      6 CBK         -0.6740    -0.0010     1.2070 ca         1 CY7       0.418600
      7 CAV         -2.1810    -0.0010     1.2190 c3         1 CY7       0.094100
      8 OBE         -2.6670    -0.0000    -0.1240 os         1 CY7      -0.322900
      9 CBN         -4.0170    -0.0000    -0.2920 ca         1 CY7       0.146100
     10 CBJ         -4.5570    -0.0010    -1.5720 ca         1 CY7       0.019400
     11 CAR         -5.9250    -0.0010    -1.7470 ca         1 CY7      -0.088000
     12 ClA         -3.5060     0.0010    -2.9540 cl         1 CY7      -0.091400
     13 CAP         -4.8510    -0.0070     0.8170 ca         1 CY7      -0.196000
     14 CAO         -6.2210    -0.0080     0.6540 ca         1 CY7      -0.124000
     15 CBI         -6.7690    -0.0010    -0.6330 ca         1 CY7       0.115400
     16 NBC         -8.1250    -0.0000    -0.8000 ne         1 CY7      -0.598100
     17 CBP         -8.8440    -1.0210    -0.3680 cd         1 CY7       0.573200
     18 CBR        -10.3210    -0.9850    -0.3730 ca         1 CY7      -0.181900
     19 CAS        -11.0180     0.0060    -1.0620 ca         1 CY7      -0.019000
     20 CBL         -8.2100    -2.2570     0.1380 cd         1 CY7      -0.219300
     21 CAJ         -6.8140    -2.5000    -0.0690 ch         1 CY7       0.216500
     22 NAD         -5.7020    -2.6800    -0.2190 n1         1 CY7      -0.361800
     23 CAQ         -8.9900    -3.1680     0.8140 cc         1 CY7       0.142000
     24 NBA        -10.3080    -2.9520     1.0280 na         1 CY7      -0.609400
     25 CBQ        -11.0150    -1.9780     0.3400 ca         1 CY7       0.185600
     26 CAT        -12.4040    -1.9700     0.3460 ca         1 CY7      -0.267000
     27 CBO        -13.0920    -0.9870    -0.3420 ca         1 CY7       0.163100
     28 OBD        -14.4500    -0.9830    -0.3320 os         1 CY7      -0.332900
     29 CAU        -15.0970    -2.0220     0.4060 c3         1 CY7       0.135400
     30 CAA        -16.6140    -1.8540     0.3000 c3         1 CY7      -0.094100
     31 CBM        -12.4010     0.0040    -1.0460 ca         1 CY7      -0.006400
     32 NBB        -13.1100     0.9960    -1.7360 ns         1 CY7      -0.468100
     33 CBH        -12.6260     1.4900    -2.8930 c          1 CY7       0.650100
     34 OAG        -11.5400     1.1320    -3.2970 o          1 CY7      -0.564100
     35 CAX        -13.4330     2.4870    -3.6840 c3         1 CY7      -0.142400
     36 CBT        -12.6600     2.8830    -4.9440 c3         1 CY7       0.067400
     37 CAY        -13.5300     3.7980    -5.8090 c3         1 CY7       0.151800
     38 NBU        -12.7890     4.1790    -7.0170 n3         1 CY7      -0.743600
     39 CAB        -12.5480     3.0120    -7.8760 c3         1 CY7       0.141100
     40 CAC        -13.4910     5.2380    -7.7550 c3         1 CY7       0.141100
     41 SG         -11.1440     3.7590    -4.4720 ss         1 CY7      -0.410200
     42 CB         -10.3040     4.0060    -6.0610 c3         1 CY7       0.004700
     43 CA          -8.9840     4.7440    -5.8330 c3         1 CY7       0.001500
     44 C           -8.2870     4.9500    -7.1530 c          1 CY7       0.871600
     45 O           -8.3560     6.0180    -7.7130 o          1 CY7      -0.778300
     46 N           -9.2550     6.0500    -5.2140 nz         1 CY7      -0.792600
     47 OXT         -7.5900     3.9450    -7.7060 o          1 CY7      -0.778300
     48 HAN         -0.5480     0.0000    -0.9340 ha         1 CY7       0.165000
     49 HAL          1.9410     0.0010    -0.9310 ha         1 CY7       0.140000
     50 HAK          3.1280     0.0000     1.2570 ha         1 CY7       0.137000
     51 HAM          1.8130    -0.0010     3.3430 h4         1 CY7       0.022100
     52 HAV1        -2.5380    -0.8850     1.7330 h1         1 CY7       0.058200
     53 HAV2        -2.5380     0.8840     1.7330 h1         1 CY7       0.058200
     54 HAP         -4.4260    -0.0160     1.8130 ha         1 CY7       0.141000
     55 HAR         -6.3440     0.0580    -2.7440 ha         1 CY7       0.165000
     56 HAO         -6.8690     0.0700     1.5180 ha         1 CY7       0.138000
     57 HAS        -10.4800     0.7720    -1.6060 ha         1 CY7       0.206000
     58 HAQ         -8.5370    -4.0800     1.1840 h4         1 CY7       0.162000
     59 HBA        -10.7880    -3.5120     1.7050 hn         1 CY7       0.452800
     60 HAT        -12.9470    -2.7110     0.9190 ha         1 CY7       0.141000
     61 HAU1       -14.8120    -2.9850    -0.0010 h1         1 CY7       0.037200
     62 HAU2       -14.7990    -1.9660     1.4460 h1         1 CY7       0.037200
     63 HAA1       -16.9310    -1.0310     0.9300 hc         1 CY7       0.050033
     64 HAA2       -16.8840    -1.6460    -0.7280 hc         1 CY7       0.050033
     65 HAA3       -17.1020    -2.7650     0.6250 hc         1 CY7       0.050033
     66 HBB        -13.9550     1.3670    -1.3480 hn         1 CY7       0.329500
     67 HAX1       -14.3800     2.0420    -3.9660 hc         1 CY7       0.072200
     68 HAX2       -13.6130     3.3670    -3.0790 hc         1 CY7       0.072200
     69 HBT        -12.4040     1.9920    -5.5050 h1         1 CY7       0.096700
     70 HAY1       -14.4360     3.2750    -6.0900 h1         1 CY7       0.043700
     71 HAY2       -13.7870     4.6880    -5.2470 h1         1 CY7       0.043700
     72 HAB1       -13.4930     2.6340    -8.2470 h1         1 CY7       0.041867
     73 HAB2       -11.9230     3.3010    -8.7120 h1         1 CY7       0.041867
     74 HAB3       -12.0500     2.2390    -7.3040 h1         1 CY7       0.041867
     75 HAC1       -14.5190     4.9400    -7.9240 h1         1 CY7       0.041867
     76 HAC2       -13.4720     6.1540    -7.1770 h1         1 CY7       0.041867
     77 HAC3       -13.0010     5.4020    -8.7070 h1         1 CY7       0.041867
     78 HBC1       -10.1050     3.0440    -6.5180 h1         1 CY7       0.119700
     79 HBC2       -10.9370     4.5920    -6.7170 h1         1 CY7       0.119700
     80 HA          -8.3510     4.1590    -5.1770 hx         1 CY7       0.115700
     81 HN1         -8.3920     6.5370    -5.0710 hn         1 CY7       0.441800
     82 HN2         -9.7110     5.9140    -4.3340 hn         1 CY7       0.441800
     83 HN3         -9.8460     6.5880    -5.8160 hn         1 CY7       0.441800
@<TRIPOS>BOND
     1     1     2 ar
     2     1     6 ar
     3     1    48 1
     4     2     3 ar
     5     2    49 1
     6     3     4 ar
     7     3    50 1
     8     4     5 ar
     9     4    51 1
    10     5     6 ar
    11     6     7 1
    12     7     8 1
    13     7    52 1
    14     7    53 1
    15     8     9 1
    16     9    10 ar
    17     9    13 ar
    18    10    11 ar
    19    10    12 1
    20    11    15 ar
    21    11    55 1
    22    13    14 ar
    23    13    54 1
    24    14    15 ar
    25    14    56 1
    26    15    16 1
    27    16    17 2
    28    17    18 1
    29    17    20 1
    30    18    19 ar
    31    18    25 ar
    32    19    31 ar
    33    19    57 1
    34    20    21 1
    35    20    23 2
    36    21    22 3
    37    23    24 1
    38    23    58 1
    39    24    25 1
    40    24    59 1
    41    25    26 ar
    42    26    27 ar
    43    26    60 1
    44    27    28 1
    45    27    31 ar
    46    28    29 1
    47    29    30 1
    48    29    61 1
    49    29    62 1
    50    30    63 1
    51    30    64 1
    52    30    65 1
    53    31    32 1
    54    32    33 1
    55    32    66 1
    56    33    34 2
    57    33    35 1
    58    35    36 1
    59    35    67 1
    60    35    68 1
    61    36    37 1
    62    36    41 1
    63    36    69 1
    64    37    38 1
    65    37    70 1
    66    37    71 1
    67    38    39 1
    68    38    40 1
    69    39    72 1
    70    39    73 1
    71    39    74 1
    72    40    75 1
    73    40    76 1
    74    40    77 1
    75    41    42 1
    76    42    43 1
    77    42    78 1
    78    42    79 1
    79    43    44 1
    80    43    46 1
    81    43    80 1
    82    44    45 1
    83    44    47 1
    84    46    81 1
    85    46    82 1
    86    83    46 1
@<TRIPOS>SUBSTRUCTURE
     1 CY7         1 TEMP              0 ****  ****    0 ROOT
