@<TRIPOS>MOLECULE
CY8
   71    71     1     0     0
SMALL
bcc


@<TRIPOS>ATOM
      1 O01         0.6680   -0.9860    0.0330 os        1 CY8     -0.175000
      2 O02         2.3830    4.4690   -8.4420 oh        1 CY8     -0.145000
      3 N03         0.8060    0.6500    3.7850 n3        1 CY8     -0.182000
      4 C04         3.3970    1.9210   -3.9180 c3        1 CY8     -0.109000
      5 C05         3.2590    0.3900   -4.0360 c3        1 CY8     -0.128000
      6 C06         3.3920   -0.0770   -2.5860 c3        1 CY8     -0.075000
      7 C07         2.9700    2.5940   -5.2110 c3        1 CY8     -0.112000
      8 C08         2.0710   -0.5470    0.0050 c3        1 CY8      0.076000
      9 C09         2.7000    1.0160   -1.8090 c2        1 CY8     -0.079000
     10 C10         2.6900    2.2820   -2.6110 c3        1 CY8     -0.119000
     11 C11         2.7870   -1.4250   -2.2650 c3        1 CY8     -0.147000
     12 C12         2.4220   -0.9720    4.6720 c2        1 CY8     -0.224000
     13 C13         2.8140   -1.6360   -0.7640 c3        1 CY8     -0.164000
     14 C14         2.1160    0.8170   -0.6180 c2        1 CY8     -0.138000
     15 C15         4.2520   -0.1240   -5.0540 c3        1 CY8     -0.207000
     16 C16         1.6830    0.1470    4.7700 c2        1 CY8     -0.042000
     17 C17         3.9300    2.0860   -6.3060 c3        1 CY8     -0.140000
     18 C18         0.0410   -0.7870    1.1730 c1        1 CY8     -0.062000
     19 C19         6.3340    4.5860   -4.9470 c2        1 CY8     -0.230500
     20 C20         4.3650    0.6920   -6.2550 c1        1 CY8     -0.055000
     21 C22         3.4560    2.4370   -7.7090 c3        1 CY8     -0.245000
     22 C23         6.2610    4.9540   -6.2190 c2        1 CY8     -0.230500
     23 C24        -1.3690   -1.2640    1.1330 c3        1 CY8     -0.232000
     24 C25         3.3990    3.9130   -7.8810 c1        1 CY8      0.015000
     25 C26         2.4860   -1.8990    3.5300 c3        1 CY8     -0.185000
     26 C27         1.4860    1.9110    0.1560 c3        1 CY8     -0.183000
     27 C28        -2.2900   -0.1850    1.6720 c3        1 CY8     -0.139000
     28 C29         0.1460    1.7660    3.9900 c1        1 CY8     -0.165000
     29 C30        -3.7000   -0.6970    1.8150 c3        1 CY8     -0.213000
     30 H1          1.6520    3.8720   -8.7260 ho        1 CY8      0.154000
     31 H2          0.7270    0.0850    2.9440 hn        1 CY8      0.216000
     32 H4          4.4820   -0.0880   -2.3000 hc        1 CY8      0.100000
     33 H5          4.4920    2.1610   -3.7740 hc        1 CY8      0.087000
     34 H6          2.2210    0.1350   -4.3890 hc        1 CY8      0.101000
     35 H7          3.2240    3.1080   -2.0770 hc        1 CY8      0.100500
     36 H8          1.6360    2.6170   -2.7850 hc        1 CY8      0.100500
     37 H9          1.7290   -1.4730   -2.6330 hc        1 CY8      0.092000
     38 H10         3.3650   -2.2370   -2.7740 hc        1 CY8      0.092000
     39 H11         2.4420   -0.4960    1.0690 h1        1 CY8      0.119000
     40 H12         3.8770   -1.6450   -0.4050 hc        1 CY8      0.097000
     41 H13         2.3580   -2.6310   -0.5180 hc        1 CY8      0.097000
     42 H14         3.9870   -1.1740   -5.3620 hc        1 CY8      0.136000
     43 H15         5.2920   -0.1770   -4.6160 hc        1 CY8      0.136000
     44 H16         3.0670   -1.2380    5.5270 ha        1 CY8      0.131000
     45 H17         1.7180    0.7800    5.6800 h4        1 CY8      0.165000
     46 H18         3.1320    3.7050   -5.1030 hc        1 CY8      0.102000
     47 H19         7.2560    4.6590   -4.3550 ha        1 CY8      0.115000
     48 H20         4.9230    2.6410   -6.1480 hc        1 CY8      0.166000
     49 H24         4.2140    2.0480   -8.4480 hc        1 CY8      0.111500
     50 H25         2.4820    1.9210   -7.9300 hc        1 CY8      0.111500
     51 H26         5.3330    4.8820   -6.8110 ha        1 CY8      0.115000
     52 H27         7.1250    5.3570   -6.7650 ha        1 CY8      0.115000
     53 H28        -1.7120   -1.5830    0.1130 hc        1 CY8      0.103000
     54 H29        -1.4110   -2.1680    1.8020 hc        1 CY8      0.103000
     55 H30         5.4690    4.1890   -4.3970 ha        1 CY8      0.115000
     56 H31         1.6050   -1.8130    2.8450 hc        1 CY8      0.079333
     57 H32         3.4120   -1.6990    2.9300 hc        1 CY8      0.079333
     58 H33         2.5360   -2.9560    3.8950 hc        1 CY8      0.079333
     59 H34         2.2710    2.4830    0.7140 hc        1 CY8      0.089000
     60 H35         0.9540    2.6230   -0.5230 hc        1 CY8      0.089000
     61 H36         0.7510    1.5090    0.8990 hc        1 CY8      0.089000
     62 H37        -2.2750    0.6960    0.9780 hc        1 CY8      0.087500
     63 H38        -1.9090    0.1700    2.6670 hc        1 CY8      0.087500
     64 H39        -0.5170    2.0540    3.1410 ha        1 CY8      0.026000
     65 H40        -4.0970   -1.0430    0.8300 hc        1 CY8      0.075333
     66 H41        -3.7390   -1.5540    2.5300 hc        1 CY8      0.075333
     67 H42        -4.3650    0.1140    2.2000 hc        1 CY8      0.075333
     68 C21         1.5160    2.3750   -5.5640 c3        1 CY8     -0.205000
     69 H21         1.3310    1.3300   -5.9100 hc        1 CY8      0.074000
     70 H22         1.2170    3.0730   -6.3860 hc        1 CY8      0.074000
     71 H23         0.8610    2.5770   -4.6830 hc        1 CY8      0.074000
@<TRIPOS>BOND
     1    1    8 1   
     2    1   18 1   
     3    2   24 1   
     4    2   30 1   
     5    3   16 1   
     6    3   28 1   
     7    3   31 1   
     8    4    5 1   
     9    4    7 1   
    10    4   10 1   
    11    4   33 1   
    12    5    6 1   
    13    5   15 1   
    14    5   34 1   
    15    6    9 1   
    16    6   11 1   
    17    6   32 1   
    18    7   17 1   
    19    7   46 1   
    20    7   68 1   
    21    8   13 1   
    22    8   14 1   
    23    8   39 1   
    24    9   10 1   
    25    9   14 1   
    26   10   35 1   
    27   10   36 1   
    28   11   13 1   
    29   11   37 1   
    30   11   38 1   
    31   12   16 1   
    32   12   25 1   
    33   12   44 1   
    34   13   40 1   
    35   13   41 1   
    36   14   26 1   
    37   15   20 1   
    38   15   42 1   
    39   15   43 1   
    40   16   45 1   
    41   17   20 1   
    42   17   21 1   
    43   17   48 1   
    44   18   23 1   
    45   19   22 1   
    46   19   47 1   
    47   19   55 1   
    48   21   24 1   
    49   21   49 1   
    50   21   50 1   
    51   22   51 1   
    52   22   52 1   
    53   23   27 1   
    54   23   53 1   
    55   23   54 1   
    56   25   56 1   
    57   25   57 1   
    58   25   58 1   
    59   26   59 1   
    60   26   60 1   
    61   26   61 1   
    62   27   29 1   
    63   27   62 1   
    64   27   63 1   
    65   28   64 1   
    66   29   65 1   
    67   29   66 1   
    68   29   67 1   
    69   68   69 1   
    70   68   70 1   
    71   68   71 1   
@<TRIPOS>SUBSTRUCTURE
     1 CY8         1 TEMP              0 ****  ****    0 ROOT
