@<TRIPOS>MOLECULE
molecule
   80    83     1     0     0
SMALL
bcc


@<TRIPOS>ATOM
      1 CHA          0.0000     0.0000     0.0000 ce         1 CYB       0.133800
      2 NA           2.1930     0.0000     1.0880 nd         1 CYB      -0.680300
      3 C1A          1.3990     0.0000     0.0000 cd         1 CYB       0.003600
      4 C2A          2.2310    -0.0070    -1.1420 cd         1 CYB      -0.040200
      5 C3A          3.5170    -0.0020    -0.6800 cc         1 CYB      -0.312800
      6 C4A          3.4530    -0.0020     0.7140 cc         1 CYB       0.416600
      7 CMA          4.7690    -0.0030    -1.5190 c3         1 CYB      -0.011900
      8 CAA          1.7890    -0.0090    -2.5820 c3         1 CYB      -0.017200
      9 CBA          1.6440    -1.4520    -3.0690 c3         1 CYB      -0.177400
     10 CGA          1.2010    -1.4540    -4.5110 c          1 CYB       0.894600
     11 O1A          1.0210    -0.4080    -5.0880 o          1 CYB      -0.854800
     12 O2A          1.0070    -2.6150    -5.1520 o          1 CYB      -0.854800
     13 CHB          4.6400    -0.0030     1.6430 c3         1 CYB      -0.086700
     14 NB           3.5280     1.4500     3.2870 ns         1 CYB      -0.565900
     15 C1B          4.1560     0.1380     3.0870 c3         1 CYB       0.135900
     16 C2B          5.3310     0.0940     4.0370 c2         1 CYB      -0.114400
     17 C3B          5.3480     1.2560     4.6850 ce         1 CYB      -0.197400
     18 C4B          4.2390     2.0970     4.2280 c          1 CYB       0.689700
     19 CMB          6.3000    -1.0470     4.2140 c3         1 CYB      -0.033900
     20 CAB          6.3590     1.6460     5.7340 c3         1 CYB      -0.015200
     21 CBB          7.5470     2.3400     5.0650 c3         1 CYB      -0.086100
     22 OB           3.9960     3.2150     4.6410 o          1 CYB      -0.638500
     23 NC          -0.6400     2.6960     4.6360 ns         1 CYB      -0.581900
     24 C1C         -0.0820     3.4080     5.6330 c          1 CYB       0.681700
     25 C2C         -0.5400     2.8980     6.9300 ce         1 CYB      -0.232200
     26 C3C         -1.3750     1.8800     6.7440 c2         1 CYB      -0.107400
     27 C4C         -1.4940     1.6730     5.2530 c3         1 CYB       0.125900
     28 CBC         -3.4120     1.7260     8.1490 c3         1 CYB      -0.087100
     29 ND          -0.1790     0.2170     2.4650 na         1 CYB      -0.121100
     30 C1D         -1.1630     0.0860     3.3760 cc         1 CYB      -0.114600
     31 C2D         -2.3180    -0.2500     2.7420 cd         1 CYB      -0.183300
     32 C3D         -2.0520    -0.3250     1.3780 cd         1 CYB      -0.040300
     33 C4D         -0.6990    -0.0330     1.2120 cc         1 CYB      -0.154100
     34 CGD         -4.0360    -2.5150    -1.0240 c          1 CYB       0.894600
     35 O1D         -4.6630    -1.6360    -1.5650 o          1 CYB      -0.851800
     36 O2D         -4.2170    -3.7940    -1.3920 o          1 CYB      -0.851800
     37 HHA         -0.5420     0.0000    -0.9380 ha         1 CYB       0.190000
     38 HMA1         5.5710     0.4740    -0.9700 hc         1 CYB       0.029367
     39 HMA2         4.5870     0.5390    -2.4390 hc         1 CYB       0.029367
     40 HMA3         5.0470    -1.0240    -1.7510 hc         1 CYB       0.029367
     41 HAA1         0.8360     0.4990    -2.6680 hc         1 CYB       0.054700
     42 HAA2         2.5270     0.5040    -3.1870 hc         1 CYB       0.054700
     43 HBA1         0.9050    -1.9640    -2.4640 hc         1 CYB       0.037200
     44 HBA2         2.5970    -1.9600    -2.9830 hc         1 CYB       0.037200
     45 HHB1         5.1830    -0.9330     1.5330 hc         1 CYB       0.057200
     46 HHB2         5.2910     0.8280     1.3980 hc         1 CYB       0.057200
     47 HB           2.7200     1.7990     2.8100 hn         1 CYB       0.365500
     48 H1B          3.4540    -0.6500     3.3300 h1         1 CYB       0.084700
     49 HMB1         6.4630    -1.2210     5.2710 hc         1 CYB       0.045700
     50 HMB2         7.2410    -0.7990     3.7390 hc         1 CYB       0.045700
     51 HMB3         5.8910    -1.9420     3.7600 hc         1 CYB       0.045700
     52 HAB1         5.8990     2.3230     6.4430 hc         1 CYB       0.046700
     53 HAB2         6.7030     0.7590     6.2520 hc         1 CYB       0.046700
     54 HBB1         8.3260     2.5080     5.7980 hc         1 CYB       0.033367
     55 HBB2         7.9300     1.7120     4.2690 hc         1 CYB       0.033367
     56 HBB3         7.2270     3.2890     4.6530 hc         1 CYB       0.033367
     57 HC          -0.4960     2.8350     3.6550 hn         1 CYB       0.360500
     58 H2C          0.1310     2.9000     7.7810 ha         1 CYB       0.157000
     59 H4C         -2.5230     1.8140     4.9420 h1         1 CYB       0.078700
     60 HAC1        -2.2270     0.0680     7.4660 hc         1 CYB       0.050700
     61 HAC2        -1.4460     1.0590     8.7070 hc         1 CYB       0.050700
     62 HBC1        -3.2460     2.6570     8.6790 hc         1 CYB       0.037700
     63 HBC2        -3.9310     1.9280     7.2200 hc         1 CYB       0.037700
     64 HBC3        -4.0120     1.0650     8.7620 hc         1 CYB       0.037700
     65 HD           0.7730     0.4540     2.6640 hn         1 CYB       0.322700
     66 HAD1        -4.0270    -0.3340     0.5820 hc         1 CYB       0.059700
     67 HAD2        -2.7480    -0.1660    -0.6280 hc         1 CYB       0.059700
     68 HBD1        -3.3410    -2.6750     0.9820 hc         1 CYB       0.035700
     69 HBD2        -2.0620    -2.5070    -0.2280 hc         1 CYB       0.035700
     70 CMD         -3.6530    -0.4900     3.3980 c3         1 CYB      -0.012800
     71 CHD         -1.0080     0.2750     4.8630 c3         1 CYB      -0.009100
     72 CAC         -2.0650     1.0800     7.8180 c3         1 CYB      -0.027200
     73 HHD1         0.0350     0.1680     5.1330 hc         1 CYB       0.059200
     74 HHD2        -1.5950    -0.4700     5.3850 hc         1 CYB       0.059200
     75 HMD1        -4.3120    -0.9950     2.7030 hc         1 CYB       0.034367
     76 HMD2        -3.5170    -1.1050     4.2790 hc         1 CYB       0.034367
     77 HMD3        -4.0900     0.4590     3.6850 hc         1 CYB       0.034367
     78 CAD         -3.0380    -0.6640     0.2890 c3         1 CYB      -0.011100
     79 OC           0.6890     4.3360     5.4820 o          1 CYB      -0.620500
     80 CBD         -3.0510    -2.1770     0.0650 c3         1 CYB      -0.179400
@<TRIPOS>BOND
     1     1     3 2
     2     1    33 1
     3     1    37 1
     4     2     3 1
     5     2     6 2
     6     3     4 1
     7     4     5 2
     8     4     8 1
     9     5     6 1
    10     5     7 1
    11     6    13 1
    12     7    38 1
    13     7    39 1
    14     7    40 1
    15     8     9 1
    16     8    41 1
    17     8    42 1
    18     9    10 1
    19     9    43 1
    20     9    44 1
    21    10    11 1
    22    10    12 1
    23    13    15 1
    24    13    45 1
    25    13    46 1
    26    14    15 1
    27    14    18 1
    28    14    47 1
    29    15    16 1
    30    15    48 1
    31    16    17 2
    32    16    19 1
    33    17    18 1
    34    17    20 1
    35    18    22 2
    36    19    49 1
    37    19    50 1
    38    19    51 1
    39    20    21 1
    40    20    52 1
    41    20    53 1
    42    21    54 1
    43    21    55 1
    44    21    56 1
    45    23    24 1
    46    23    27 1
    47    23    57 1
    48    24    25 1
    49    24    79 2
    50    25    26 2
    51    25    58 1
    52    26    27 1
    53    26    72 1
    54    27    71 1
    55    27    59 1
    56    72    28 1
    57    72    60 1
    58    72    61 1
    59    28    62 1
    60    28    63 1
    61    28    64 1
    62    71    30 1
    63    71    73 1
    64    71    74 1
    65    29    30 1
    66    29    33 1
    67    29    65 1
    68    30    31 2
    69    31    32 1
    70    31    70 1
    71    32    33 2
    72    32    78 1
    73    70    75 1
    74    70    76 1
    75    70    77 1
    76    78    80 1
    77    78    66 1
    78    78    67 1
    79    80    34 1
    80    80    68 1
    81    80    69 1
    82    34    35 1
    83    34    36 1
@<TRIPOS>SUBSTRUCTURE
     1 CYB         1 TEMP              0 ****  ****    0 ROOT
