@<TRIPOS>MOLECULE
molecule
   81    84     1     0     0
SMALL
bcc


@<TRIPOS>ATOM
      1 CHA          0.0000     0.0000     0.0000 ce         1 CYC       0.146800
      2 NA           2.1920     0.0000     1.0830 nd         1 CYC      -0.661300
      3 C1A          1.4090     0.0000     0.0000 cd         1 CYC       0.002600
      4 C2A          2.2370     0.0010    -1.1480 cd         1 CYC      -0.055200
      5 C3A          3.5240     0.0010    -0.7040 cc         1 CYC      -0.288800
      6 C4A          3.4710    -0.0000     0.7080 cc         1 CYC       0.425900
      7 CMA          4.7670     0.0010    -1.5560 c3         1 CYC      -0.013900
      8 CAA          1.7830     0.0010    -2.5840 c3         1 CYC      -0.018200
      9 CBA          1.5090    -1.4360    -3.0320 c3         1 CYC      -0.176400
     10 CGA          1.0530    -1.4350    -4.4690 c          1 CYC       0.893600
     11 O1A          0.9580    -0.3930    -5.0730 o          1 CYC      -0.854300
     12 O2A          0.7540    -2.5930    -5.0790 o          1 CYC      -0.854300
     13 CHB          4.5880     0.0000     1.5790 ce         1 CYC      -0.126600
     14 NB           3.1980    -0.4280     3.5770 ns         1 CYC      -0.453100
     15 C1B          4.4140    -0.2440     2.9240 cd         1 CYC      -0.008400
     16 C2B          5.4360    -0.3530     3.8910 cd         1 CYC      -0.044200
     17 C3B          4.8400    -0.5970     5.0890 cc         1 CYC      -0.235400
     18 C4B          3.4470    -0.6400     4.8830 c          1 CYC       0.695700
     19 CMB          6.9170    -0.2250     3.6420 c3         1 CYC      -0.039900
     20 CAB          5.5450    -0.7860     6.4070 c3         1 CYC      -0.005200
     21 CBB          5.6110     0.5520     7.1470 c3         1 CYC      -0.090100
     22 OB           2.6060    -0.8400     5.7430 o          1 CYC      -0.666500
     23 NC           0.8710     2.4290     4.1720 ns         1 CYC      -0.467100
     24 C1C          1.7860     3.1890     4.7860 c          1 CYC       0.708500
     25 C2C          1.5320     3.1820     6.2760 c3         1 CYC      -0.160700
     26 C3C          0.2940     2.2780     6.4410 c3         1 CYC      -0.035500
     27 C4C         -0.0350     1.8570     5.0260 c2         1 CYC       0.010400
     28 CAC         -0.8670     3.0630     7.0520 c3         1 CYC      -0.074400
     29 CBC         -0.5120     3.4670     8.4850 c3         1 CYC      -0.094100
     30 ND          -0.1810     0.6410     2.3820 na         1 CYC      -0.149100
     31 C1D         -1.1760     0.6250     3.3190 cc         1 CYC      -0.040100
     32 C2D         -2.3340     0.1180     2.7250 cd         1 CYC      -0.169300
     33 C3D         -2.0410    -0.1800     1.4120 cd         1 CYC      -0.021300
     34 C4D         -0.6940     0.1460     1.1930 cc         1 CYC      -0.157100
     35 CGD         -4.6570    -0.1830    -1.3540 c          1 CYC       0.893600
     36 O1D         -4.7600    -1.3800    -1.4800 o          1 CYC      -0.849300
     37 O2D         -5.3930     0.6380    -2.1200 o          1 CYC      -0.849300
     38 HHA         -0.5390    -0.0000    -0.9400 ha         1 CYC       0.196000
     39 HMA1         4.5460     0.4500    -2.5170 hc         1 CYC       0.030700
     40 HMA2         5.1040    -1.0180    -1.7030 hc         1 CYC       0.030700
     41 HMA3         5.5440     0.5710    -1.0620 hc         1 CYC       0.030700
     42 HAA1         2.5560     0.4330    -3.2070 hc         1 CYC       0.056700
     43 HAA2         0.8760     0.5870    -2.6750 hc         1 CYC       0.056700
     44 HBA1         0.7350    -1.8680    -2.4090 hc         1 CYC       0.034200
     45 HBA2         2.4150    -2.0220    -2.9410 hc         1 CYC       0.034200
     46 HHB          5.5860     0.1280     1.1770 ha         1 CYC       0.141000
     47 HB           2.2930    -0.4050     3.1490 hn         1 CYC       0.375500
     48 HMB1         7.1930    -0.8270     2.7850 hc         1 CYC       0.044367
     49 HMB2         7.1630     0.8120     3.4490 hc         1 CYC       0.044367
     50 HMB3         7.4610    -0.5680     4.5140 hc         1 CYC       0.044367
     51 HAB1         6.5500    -1.1500     6.2300 hc         1 CYC       0.044200
     52 HAB2         5.0010    -1.5050     7.0080 hc         1 CYC       0.044200
     53 HBB1         6.5530     0.6270     7.6750 hc         1 CYC       0.032367
     54 HBB2         5.5320     1.3630     6.4330 hc         1 CYC       0.032367
     55 HBB3         4.7930     0.6130     7.8550 hc         1 CYC       0.032367
     56 HC           0.8500     2.2910     3.1810 hn         1 CYC       0.347500
     57 H2C          1.3160     4.1840     6.6260 hc         1 CYC       0.076700
     58 H3C          0.5360     1.4120     7.0460 hc         1 CYC       0.088700
     59 HAC1        -1.0520     3.9520     6.4620 hc         1 CYC       0.049200
     60 HAC2        -1.7560     2.4440     7.0620 hc         1 CYC       0.049200
     61 HBC1        -1.4210     3.5810     9.0640 hc         1 CYC       0.031367
     62 HBC2         0.0280     4.4060     8.4720 hc         1 CYC       0.031367
     63 HBC3         0.1080     2.7000     8.9340 hc         1 CYC       0.031367
     64 HD           0.7580     0.9540     2.5290 hn         1 CYC       0.319700
     65 HAD1        -3.7290    -1.3710     0.8960 hc         1 CYC       0.066200
     66 HAD2        -2.4440    -1.3520    -0.3200 hc         1 CYC       0.066200
     67 HBD1        -4.2550     0.9900     0.3770 hc         1 CYC       0.031700
     68 HBD2        -2.9690     1.0090    -0.8390 hc         1 CYC       0.031700
     69 CMD         -3.6670    -0.0720     3.4010 c3         1 CYC      -0.009800
     70 CHD         -1.0540     1.0510     4.6630 ce         1 CYC      -0.147200
     71 CMC          2.7300     2.5920     7.0220 c3         1 CYC      -0.085100
     72 HMC1         3.6440     2.8500     6.5000 hc         1 CYC       0.047700
     73 HMC2         2.6320     1.5140     7.0670 hc         1 CYC       0.047700
     74 HMC3         2.7630     2.9940     8.0280 hc         1 CYC       0.047700
     75 HHD         -1.7180     0.6480     5.4180 ha         1 CYC       0.156000
     76 HMD1        -4.2820     0.8040     3.2390 hc         1 CYC       0.037033
     77 HMD2        -3.5160    -0.2150     4.4640 hc         1 CYC       0.037033
     78 HMD3        -4.1610    -0.9430     2.9870 hc         1 CYC       0.037033
     79 CAD         -2.9950    -0.7520     0.3950 c3         1 CYC      -0.017100
     80 OC           2.6830     3.7890     4.2320 o          1 CYC      -0.618500
     81 CBD         -3.7040     0.3900    -0.3370 c3         1 CYC      -0.177400
@<TRIPOS>BOND
     1     1     3 2
     2     1    34 1
     3     1    38 1
     4     2     3 1
     5     2     6 2
     6     3     4 1
     7     4     5 2
     8     4     8 1
     9     5     6 1
    10     5     7 1
    11     6    13 1
    12     7    39 1
    13     7    40 1
    14     7    41 1
    15     8     9 1
    16     8    42 1
    17     8    43 1
    18     9    10 1
    19     9    44 1
    20     9    45 1
    21    10    11 1
    22    10    12 1
    23    13    15 2
    24    13    46 1
    25    14    15 1
    26    14    18 1
    27    14    47 1
    28    15    16 1
    29    16    17 2
    30    16    19 1
    31    17    18 1
    32    17    20 1
    33    18    22 2
    34    19    48 1
    35    19    49 1
    36    19    50 1
    37    20    21 1
    38    20    51 1
    39    20    52 1
    40    21    53 1
    41    21    54 1
    42    21    55 1
    43    23    24 1
    44    23    27 1
    45    23    56 1
    46    24    25 1
    47    24    80 2
    48    25    26 1
    49    25    71 1
    50    25    57 1
    51    26    27 1
    52    26    28 1
    53    26    58 1
    54    27    70 2
    55    71    72 1
    56    71    73 1
    57    71    74 1
    58    28    29 1
    59    28    59 1
    60    28    60 1
    61    29    61 1
    62    29    62 1
    63    29    63 1
    64    70    31 1
    65    70    75 1
    66    30    31 1
    67    30    34 1
    68    30    64 1
    69    31    32 2
    70    32    33 1
    71    32    69 1
    72    33    34 2
    73    33    79 1
    74    69    76 1
    75    69    77 1
    76    69    78 1
    77    79    81 1
    78    79    65 1
    79    79    66 1
    80    81    35 1
    81    81    67 1
    82    81    68 1
    83    35    36 1
    84    35    37 1
@<TRIPOS>SUBSTRUCTURE
     1 CYC         1 TEMP              0 ****  ****    0 ROOT
