@<TRIPOS>MOLECULE
CYC
   81    84     1     0     0
SMALL
bcc


@<TRIPOS>ATOM
      1 CHA          0.0000     0.0000     0.0000 ce         1 CYC       0.229800
      2 NA           2.1920     0.0000     1.0830 nd         1 CYC      -0.586300
      3 C1A          1.4090     0.0000     0.0000 cd         1 CYC      -0.053400
      4 C2A          2.2370     0.0010    -1.1480 cd         1 CYC      -0.043200
      5 C3A          3.5240     0.0010    -0.7040 cc         1 CYC      -0.296800
      6 C4A          3.4710    -0.0000     0.7080 cc         1 CYC       0.389900
      7 CMA          4.7670     0.0010    -1.5560 c3         1 CYC       0.094100
      8 CAA          1.7830     0.0010    -2.5840 c3         1 CYC       0.043800
      9 CBA          1.5090    -1.4360    -3.0320 c3         1 CYC      -0.131400
     10 CGA          1.0530    -1.4350    -4.4690 c          1 CYC       0.982600
     11 O1A          0.9580    -0.3930    -5.0730 o          1 CYC      -0.902800
     12 O2A          0.7540    -2.5930    -5.0790 o          1 CYC      -0.902800
     13 CHB          4.5880     0.0000     1.5790 ce         1 CYC      -0.075600
     14 NB           3.1980    -0.4280     3.5770 ns         1 CYC      -0.026100
     15 C1B          4.4140    -0.2440     2.9240 cd         1 CYC      -0.164400
     16 C2B          5.4360    -0.3530     3.8910 cd         1 CYC      -0.043200
     17 C3B          4.8400    -0.5970     5.0890 cc         1 CYC      -0.256400
     18 C4B          3.4470    -0.6400     4.8830 c          1 CYC       0.605700
     19 CMB          6.9170    -0.2250     3.6420 c3         1 CYC       0.073100
     20 CAB          5.5450    -0.7860     6.4070 c3         1 CYC       0.068800
     21 CBB          5.6110     0.5520     7.1470 c3         1 CYC      -0.004100
     22 OB           2.6060    -0.8400     5.7430 o          1 CYC      -0.712500
     23 NC           0.8710     2.4290     4.1720 ns         1 CYC      -0.035100
     24 C1C          1.7860     3.1890     4.7860 c          1 CYC       0.613500
     25 C2C          1.5320     3.1820     6.2760 c3         1 CYC      -0.142700
     26 C3C          0.2940     2.2780     6.4410 c3         1 CYC       0.001500
     27 C4C         -0.0350     1.8570     5.0260 c2         1 CYC      -0.165600
     28 CAC         -0.8670     3.0630     7.0520 c3         1 CYC      -0.022400
     29 CBC         -0.5120     3.4670     8.4850 c3         1 CYC      -0.000100
     30 ND          -0.1810     0.6410     2.3820 na         1 CYC       0.396900
     31 C1D         -1.1760     0.6250     3.3190 cc         1 CYC      -0.243100
     32 C2D         -2.3340     0.1180     2.7250 cd         1 CYC      -0.168300
     33 C3D         -2.0410    -0.1800     1.4120 cd         1 CYC      -0.013300
     34 C4D         -0.6940     0.1460     1.1930 cc         1 CYC      -0.358100
     35 CGD         -4.6570    -0.1830    -1.3540 c          1 CYC       0.981600
     36 O1D         -4.7600    -1.3800    -1.4800 o          1 CYC      -0.898800
     37 O2D         -5.3930     0.6380    -2.1200 o          1 CYC      -0.898800
     38 HHA         -0.5390    -0.0000    -0.9400 ha         1 CYC       0.152000
     39 HMA1         5.3490     0.8900    -1.3450 hc         1 CYC       0.000033
     40 HMA2         4.4870    -0.0070    -2.6030 hc         1 CYC       0.000033
     41 HMA3         5.3580    -0.8790    -1.3330 hc         1 CYC       0.000033
     42 HAA1         0.8760     0.5870    -2.6750 hc         1 CYC       0.030200
     43 HAA2         2.5560     0.4330    -3.2070 hc         1 CYC       0.030200
     44 HBA1         2.4150    -2.0220    -2.9410 hc         1 CYC       0.009200
     45 HBA2         0.7350    -1.8680    -2.4090 hc         1 CYC       0.009200
     46 HHB          5.5760     0.2180     1.1920 ha         1 CYC       0.110000
     47 HB           2.2930    -0.4050     3.1490 hn         1 CYC       0.218500
     48 HMB1         7.1650    -0.6810     2.6910 hc         1 CYC       0.008367
     49 HMB2         7.1910     0.8230     3.6220 hc         1 CYC       0.008367
     50 HMB3         7.4610    -0.7250     4.4350 hc         1 CYC       0.008367
     51 HAB1         5.0010    -1.5050     7.0080 hc         1 CYC       0.012700
     52 HAB2         6.5500    -1.1500     6.2300 hc         1 CYC       0.012700
     53 HBB1         4.8080     0.6030     7.8730 hc         1 CYC       0.001700
     54 HBB2         6.5630     0.6370     7.6550 hc         1 CYC       0.001700
     55 HBB3         5.5070     1.3630     6.4360 hc         1 CYC       0.001700
     56 HC           0.8500     2.2910     3.1810 hn         1 CYC       0.192500
     57 H2C          1.3160     4.1840     6.6260 hc         1 CYC       0.053700
     58 H3C          0.5360     1.4120     7.0460 hc         1 CYC       0.064700
     59 HAC1        -1.7560     2.4440     7.0620 hc         1 CYC       0.020200
     60 HAC2        -1.0520     3.9520     6.4620 hc         1 CYC       0.020200
     61 HBC1         0.0070     2.6510     8.9720 hc         1 CYC       0.000033
     62 HBC2         0.1270     4.3410     8.4660 hc         1 CYC       0.000033
     63 HBC3        -1.4200     3.6950     9.0310 hc         1 CYC       0.000033
     64 HD           0.7570     0.9590     2.5280 hn         1 CYC       0.151700
     65 HAD1        -3.7290    -1.3710     0.8960 hc         1 CYC       0.036700
     66 HAD2        -2.4440    -1.3520    -0.3200 hc         1 CYC       0.036700
     67 HBD1        -4.2550     0.9900     0.3770 hc         1 CYC       0.006700
     68 HBD2        -2.9690     1.0090    -0.8390 hc         1 CYC       0.006700
     69 CMD         -3.6670    -0.0720     3.4010 c3         1 CYC       0.097200
     70 CHD         -1.0540     1.0510     4.6630 ce         1 CYC      -0.085200
     71 CMC          2.7300     2.5920     7.0220 c3         1 CYC      -0.002100
     72 HMC1         2.7920     3.0310     8.0100 hc         1 CYC       0.017700
     73 HMC2         2.6080     1.5190     7.1110 hc         1 CYC       0.017700
     74 HMC3         3.6390     2.8070     6.4740 hc         1 CYC       0.017700
     75 HHD         -1.7180     0.6480     5.4190 ha         1 CYC       0.129000
     76 HMD1        -4.1190     0.8950     3.5860 hc         1 CYC       0.004367
     77 HMD2        -4.3160    -0.6580     2.7620 hc         1 CYC       0.004367
     78 HMD3        -3.5240    -0.5900     4.3420 hc         1 CYC       0.004367
     79 CAD         -2.9950    -0.7520     0.3950 c3         1 CYC       0.043900
     80 OC           2.6830     3.7890     4.2320 o          1 CYC      -0.661500
     81 CBD         -3.7040     0.3900    -0.3370 c3         1 CYC      -0.130400
@<TRIPOS>BOND
     1     1     3 2   
     2     1    34 1   
     3     1    38 1   
     4     2     3 1   
     5     2     6 2   
     6     3     4 1   
     7     4     5 2   
     8     4     8 1   
     9     5     6 1   
    10     5     7 1   
    11     6    13 1   
    12     7    39 1   
    13     7    40 1   
    14     7    41 1   
    15     8     9 1   
    16     8    42 1   
    17     8    43 1   
    18     9    10 1   
    19     9    44 1   
    20     9    45 1   
    21    10    11 1   
    22    10    12 1   
    23    13    15 2   
    24    13    46 1   
    25    14    15 1   
    26    14    18 1   
    27    14    47 1   
    28    15    16 1   
    29    16    17 2   
    30    16    19 1   
    31    17    18 1   
    32    17    20 1   
    33    18    22 2   
    34    19    48 1   
    35    19    49 1   
    36    19    50 1   
    37    20    21 1   
    38    20    51 1   
    39    20    52 1   
    40    21    53 1   
    41    21    54 1   
    42    21    55 1   
    43    23    24 1   
    44    23    27 1   
    45    23    56 1   
    46    24    25 1   
    47    24    80 2   
    48    25    26 1   
    49    25    57 1   
    50    25    71 1   
    51    26    27 1   
    52    26    28 1   
    53    26    58 1   
    54    27    70 2   
    55    28    29 1   
    56    28    59 1   
    57    28    60 1   
    58    29    61 1   
    59    29    62 1   
    60    29    63 1   
    61    30    31 1   
    62    30    34 1   
    63    30    64 1   
    64    31    32 2   
    65    31    70 1   
    66    32    33 1   
    67    32    69 1   
    68    33    34 2   
    69    33    79 1   
    70    35    36 1   
    71    35    37 1   
    72    35    81 1   
    73    65    79 1   
    74    66    79 1   
    75    67    81 1   
    76    68    81 1   
    77    69    76 1   
    78    69    77 1   
    79    69    78 1   
    80    70    75 1   
    81    71    72 1   
    82    71    73 1   
    83    71    74 1   
    84    79    81 1   
@<TRIPOS>SUBSTRUCTURE
     1 CYC         1 TEMP              0 ****  ****    0 ROOT
