@<TRIPOS>MOLECULE
molecule
   17    17     1     0     0
SMALL
bcc


@<TRIPOS>ATOM
      1 C1           0.0000     0.0000     0.0000 c          1 CYH       0.568100
      2 O1          -0.6190     0.8090    -0.6480 o          1 CYH      -0.523100
      3 C2           1.5120     0.0000     0.0000 c3         1 CYH      -0.181400
      4 C3           1.9990     0.0000     1.4520 c3         1 CYH      -0.075400
      5 C4           1.3690    -1.1750     2.2000 c3         1 CYH      -0.086400
      6 C5          -0.1490    -1.0010     2.2550 c3         1 CYH      -0.075400
      7 C6          -0.7170    -1.0360     0.8380 c3         1 CYH      -0.181400
      8 H21          1.8750    -0.8870    -0.5050 hc         1 CYH       0.067200
      9 H22          1.8750     0.8870    -0.5050 hc         1 CYH       0.067200
     10 H31          1.7080     0.9280     1.9290 hc         1 CYH       0.048700
     11 H32          3.0780    -0.0990     1.4700 hc         1 CYH       0.048700
     12 H41          1.6060    -2.0970     1.6840 hc         1 CYH       0.045200
     13 H42          1.7620    -1.2090     3.2090 hc         1 CYH       0.045200
     14 H51         -0.5820    -1.8060     2.8360 hc         1 CYH       0.048700
     15 H52         -0.3860    -0.0490     2.7140 hc         1 CYH       0.048700
     16 H61         -0.5620    -2.0190     0.4100 hc         1 CYH       0.067200
     17 H62         -1.7760    -0.8090     0.8660 hc         1 CYH       0.067200
@<TRIPOS>BOND
     1     1     2 2
     2     1     3 1
     3     1     7 1
     4     3     4 1
     5     3     8 1
     6     3     9 1
     7     4     5 1
     8     4    10 1
     9     4    11 1
    10     5     6 1
    11     5    12 1
    12     5    13 1
    13     6     7 1
    14     6    14 1
    15     6    15 1
    16     7    16 1
    17     7    17 1
@<TRIPOS>SUBSTRUCTURE
     1 CYH         1 TEMP              0 ****  ****    0 ROOT
