@<TRIPOS>MOLECULE
CYI
   19    19     1     0     0
SMALL
bcc


@<TRIPOS>ATOM
      1 C1          0.0130    0.0330   -0.0340 c3        1 CYI     -0.081400
      2 C2          1.5260   -0.0190    0.0130 c3        1 CYI     -0.077400
      3 C3          2.0370   -0.0220    1.4380 c3        1 CYI     -0.088400
      4 C4          1.5260    1.2270    2.1850 c3        1 CYI      0.287800
      5 C5         -0.0150    1.2270    2.1660 c3        1 CYI     -0.088400
      6 C6         -0.5160    1.2240    0.7380 c3        1 CYI     -0.077400
      7 N           2.0570    1.3370    3.4920 n1        1 CYI     -0.844300
      8 C           2.5040    1.4380    4.5800 c1        1 CYI      0.427800
      9 H11        -0.4080   -0.9120    0.4000 hc        1 CYI      0.044200
     10 H12        -0.3280    0.0950   -1.1000 hc        1 CYI      0.044200
     11 H21         1.9490    0.8620   -0.5370 hc        1 CYI      0.045200
     12 H22         1.8860   -0.9450   -0.5070 hc        1 CYI      0.045200
     13 H31         3.1580   -0.0340    1.4330 hc        1 CYI      0.053200
     14 H32         1.6870   -0.9470    1.9650 hc        1 CYI      0.053200
     15 H4          1.8790    2.1410    1.6110 h1        1 CYI      0.060700
     16 H51        -0.4000    0.3230    2.7060 hc        1 CYI      0.053200
     17 H52        -0.4050    2.1350    2.6960 hc        1 CYI      0.053200
     18 H61        -1.6380    1.2000    0.7420 hc        1 CYI      0.045200
     19 H62        -0.2030    2.1710    0.2260 hc        1 CYI      0.045200
@<TRIPOS>BOND
     1    1    2 1
     2    1    6 1
     3    1    9 1
     4    1   10 1
     5    2    3 1
     6    2   11 1
     7    2   12 1
     8    3    4 1
     9    3   13 1
    10    3   14 1
    11    4    5 1
    12    4    7 1
    13    4   15 1
    14    5    6 1
    15    5   16 1
    16    5   17 1
    17    6   18 1
    18    6   19 1
    19    7    8 3
@<TRIPOS>SUBSTRUCTURE
     1 CYI         1 TEMP              0 ****  ****    0 ROOT
