@<TRIPOS>MOLECULE
molecule
   33    32     1     0     0
SMALL
bcc


@<TRIPOS>ATOM
      1 C2           0.0000     0.0000     0.0000 c3         1 CYK      -0.062400
      2 C5           3.2410    -0.4920     1.6630 c          1 CYK       0.662100
      3 C4           2.0320     1.2310    -0.7110 c          1 CYK       0.888600
      4 O3           3.9360    -0.9360     0.7740 o          1 CYK      -0.621100
      5 N1           2.0190     0.0000     1.3810 ns         1 CYK      -0.553900
      6 C3           1.5300     0.0000     0.0000 c3         1 CYK       0.007700
      7 O2           1.7070     1.4440    -1.9950 o          1 CYK      -0.835300
      8 O1           2.7270     2.0260    -0.1240 o          1 CYK      -0.835300
      9 C1          -0.5100    -1.3070     0.6100 c3         1 CYK       0.052700
     10 S           -2.3240    -1.3070     0.6110 sh         1 CYK      -0.464900
     11 C6           3.7430    -0.4920     3.0840 c3         1 CYK      -0.160400
     12 C7           5.1470    -1.1020     3.1280 c3         1 CYK      -0.064400
     13 C8           5.6560    -1.1020     4.5710 c3         1 CYK      -0.086400
     14 C9           7.0600    -1.7120     4.6150 c3         1 CYK      -0.083400
     15 C10          7.5700    -1.7110     6.0570 c3         1 CYK      -0.092100
     16 H2          -0.3610     0.8370     0.5850 hc         1 CYK       0.070700
     17 H2A         -0.3610     0.0880    -1.0180 hc         1 CYK       0.070700
     18 HN1          1.4600     0.3990     2.1090 hn         1 CYK       0.296500
     19 H3           1.8910    -0.8840    -0.5110 h1         1 CYK       0.074700
     20 H1          -0.1480    -1.3950     1.6280 h1         1 CYK       0.049200
     21 H1A         -0.1490    -2.1440     0.0250 h1         1 CYK       0.049200
     22 HS          -2.7660    -2.4410     1.1410 hs         1 CYK       0.193800
     23 H6           3.0750    -1.0790     3.7030 hc         1 CYK       0.048200
     24 H6A          3.7800     0.5250     3.4540 hc         1 CYK       0.048200
     25 H7           5.1110    -2.1200     2.7570 hc         1 CYK       0.058200
     26 H7A          5.8150    -0.5160     2.5090 hc         1 CYK       0.058200
     27 H8           5.6930    -0.0850     4.9410 hc         1 CYK       0.034200
     28 H8A          4.9880    -1.6890     5.1900 hc         1 CYK       0.034200
     29 H9           7.0240    -2.7300     4.2450 hc         1 CYK       0.041700
     30 H9A          7.7280    -1.1260     3.9950 hc         1 CYK       0.041700
     31 H10          8.5630    -2.1430     6.0890 hc         1 CYK       0.027033
     32 H10A         7.6060    -0.6940     6.4270 hc         1 CYK       0.027033
     33 H10B         6.9020    -2.2970     6.6770 hc         1 CYK       0.027033
@<TRIPOS>BOND
     1     6     1 1
     2     1     9 1
     3     1    16 1
     4     1    17 1
     5    11     2 1
     6     4     2 2
     7     2     5 1
     8     8     3 1
     9     3     6 1
    10     3     7 1
    11     5     6 1
    12     5    18 1
    13     6    19 1
    14     9    10 1
    15     9    20 1
    16     9    21 1
    17    10    22 1
    18    12    11 1
    19    11    23 1
    20    11    24 1
    21    12    13 1
    22    12    25 1
    23    12    26 1
    24    14    13 1
    25    13    27 1
    26    13    28 1
    27    15    14 1
    28    14    29 1
    29    14    30 1
    30    15    31 1
    31    15    32 1
    32    15    33 1
@<TRIPOS>SUBSTRUCTURE
     1 CYK         1 TEMP              0 ****  ****    0 ROOT
