@<TRIPOS>MOLECULE
CYL
   26    26     1     0     0
SMALL
bcc


@<TRIPOS>ATOM
      1 C1           0.0000     0.0000     0.0000 c3         1 CYL      -0.011300
      2 C2           1.5300     0.0000     0.0000 c3         1 CYL       0.157100
      3 C3           2.0170     0.0000     1.4500 c3         1 CYL       0.155100
      4 C4           1.6440     1.3400     2.0850 c3         1 CYL       0.210300
      5 C5           0.2000     1.6510     1.8250 c2         1 CYL      -0.041400
      6 C6          -0.4610     2.7040     2.6770 c3         1 CYL       0.263600
      7 N1          -0.4870    -1.3070     0.4590 nz         1 CYL       0.068400
      8 O2           2.0120    -1.1670    -0.6680 oh         1 CYL      -0.602800
      9 O3           3.4350    -0.1700     1.4850 oh         1 CYL      -0.555800
     10 O4           1.8690     1.2740     3.4940 oh         1 CYL      -0.574800
     11 C7          -0.5150     1.0710     0.9150 c2         1 CYL      -0.262200
     12 O6          -1.8250     2.8530     2.2790 oh         1 CYL      -0.607800
     13 H1          -0.3570     0.1880    -1.0050 hx         1 CYL       0.091700
     14 H2           1.8920     0.8880    -0.5030 h1         1 CYL       0.060700
     15 H3           1.5360    -0.8040     1.9930 h1         1 CYL       0.000700
     16 H4           2.2590     2.1220     1.6560 h1         1 CYL       0.046700
     17 H61         -0.4190     2.4050     3.7180 h1         1 CYL       0.022700
     18 H62          0.0560     3.6470     2.5520 h1         1 CYL       0.022700
     19 HN11        -0.1510    -2.0230    -0.1550 hn         1 CYL       0.229133
     20 HN12        -0.1560    -1.4800     1.3870 hn         1 CYL       0.229133
     21 HO2          2.5360    -0.9120    -1.4090 ho         1 CYL       0.443000
     22 HO3          3.6520    -0.8820     2.0650 ho         1 CYL       0.417000
     23 HO4          2.6540     1.7500     3.7100 ho         1 CYL       0.420000
     24 H7          -1.5480     1.3790     0.8070 ha         1 CYL       0.169000
     25 HO6         -2.2350     3.5190     2.8050 ho         1 CYL       0.421000
     26 H13         -1.4880    -1.3100     0.4560 hn         1 CYL       0.229133
@<TRIPOS>BOND
     1     1     2 1   
     2     1     7 1   
     3     1    11 1   
     4     1    13 1   
     5     2     3 1   
     6     2     8 1   
     7     2    14 1   
     8     3     4 1   
     9     3     9 1   
    10     3    15 1   
    11     4     5 1   
    12     4    10 1   
    13     4    16 1   
    14     5     6 1   
    15     5    11 2   
    16     6    12 1   
    17     6    17 1   
    18     6    18 1   
    19     7    19 1   
    20     7    20 1   
    21     7    26 1   
    22     8    21 1   
    23     9    22 1   
    24    10    23 1   
    25    11    24 1   
    26    12    25 1   
@<TRIPOS>SUBSTRUCTURE
     1 CYL         1 TEMP              0 ****  ****    0 ROOT
