@<TRIPOS>MOLECULE
CYN
    2     1     1     0     0
SMALL
bcc


@<TRIPOS>ATOM
      1 C           0.0000    0.0000   -0.6330 c1        1 CYN     -0.160200
      2 N          -0.0000   -0.0000    0.5460 n1        1 CYN     -0.839800
@<TRIPOS>BOND
     1    1    2 3   
@<TRIPOS>SUBSTRUCTURE
     1 CYN         1 TEMP              0 ****  ****    0 ROOT
