@<TRIPOS>MOLECULE
molecule
    3     2     1     0     0
SMALL
bcc


@<TRIPOS>ATOM
      1 OD1         35.1240    46.2270   124.2830 o          1 CYO      -0.013000
      2 OD2         37.3990    46.3010   124.1830 os         1 CYO       0.025000
      3 OD3         36.2890    48.0580   123.1450 o          1 CYO      -0.013000
@<TRIPOS>BOND
     1     2     1 1
     2     3     2 1
@<TRIPOS>SUBSTRUCTURE
     1 CYO         1 TEMP              0 ****  ****    0 ROOT
