@<TRIPOS>MOLECULE
molecule
   61    63     1     0     0
SMALL
bcc


@<TRIPOS>ATOM
      1 N1           0.0000     0.0000     0.0000 nz         1 CYP      -0.790600
      2 CA1          1.4680     0.0000     0.0000 c3         1 CYP      -0.020500
      3 C1           1.9710     0.0000     1.4210 c          1 CYP       0.871600
      4 O11          3.1430    -0.5810     1.7190 o          1 CYP      -0.781800
      5 CB1          1.9770     1.2490    -0.7200 c3         1 CYP      -0.075400
      6 CG1          1.4680     1.2500    -2.1630 c3         1 CYP      -0.181400
      7 CD1          1.9700     2.4810    -2.8730 c          1 CYP       0.667100
      8 OE1          2.6660     3.2800    -2.2830 o          1 CYP      -0.588100
      9 O12          1.3180     0.5230     2.2930 o          1 CYP      -0.781800
     10 N2           1.6440     2.6930    -4.1630 ns         1 CYP      -0.577900
     11 CA2          2.1330     3.8900    -4.8530 c3         1 CYP       0.054700
     12 C2           1.1400     5.0100    -4.6800 c          1 CYP       0.634100
     13 O2           1.5210     6.1610    -4.6640 o          1 CYP      -0.625100
     14 CB2          2.3030     3.5850    -6.3430 c3         1 CYP       0.002700
     15 SG2          3.4970     2.2380    -6.5510 ss         1 CYP      -0.331200
     16 CA4          3.5010     2.0960    -8.3600 c3         1 CYP       0.061700
     17 CB4          2.1090     1.7760    -8.8340 ca         1 CYP      -0.065300
     18 CG4          1.2650     2.7880    -9.2480 ca         1 CYP      -0.125000
     19 CD4         -0.0240     2.4920    -9.6530 ca         1 CYP      -0.113000
     20 CE4         -0.4790     1.1860    -9.6370 ca         1 CYP      -0.124000
     21 CZ4          0.3580     0.1660    -9.2270 ca         1 CYP      -0.116000
     22 CH4          1.6620     0.4570    -8.8450 ca         1 CYP      -0.022000
     23 CH5          2.5880    -0.6190    -8.4160 ca         1 CYP       0.003000
     24 CZ5          2.1110    -1.8780    -8.0720 ca         1 CYP      -0.123000
     25 CE5          2.9950    -2.8600    -7.6710 ca         1 CYP      -0.124000
     26 CD5          4.3500    -2.5910    -7.6140 ca         1 CYP      -0.132000
     27 CG5          4.8300    -1.3430    -7.9660 ca         1 CYP      -0.110000
     28 CB5          3.9560    -0.3550    -8.3740 ca         1 CYP      -0.081300
     29 CA5          4.4750     0.9980    -8.7770 c3         1 CYP       0.217400
     30 O5           4.6450     1.0340   -10.1950 oh         1 CYP      -0.588800
     31 N3          -0.1720     4.7320    -4.5430 ns         1 CYP      -0.543900
     32 CA3         -1.1370     5.8220    -4.3740 c3         1 CYP      -0.005000
     33 C3          -2.5240     5.2470    -4.2440 c          1 CYP       0.884600
     34 O31         -3.5760     6.0650    -4.0790 o          1 CYP      -0.848300
     35 O32         -2.6890     4.0510    -4.2870 o          1 CYP      -0.848300
     36 HN11        -0.3340    -0.3840    -0.8620 hn         1 CYP       0.440133
     37 HN12        -0.3340     0.9380     0.0980 hn         1 CYP       0.440133
     38 HA1          1.8300    -0.8840    -0.5110 hx         1 CYP       0.096700
     39 HB11         1.6150     2.1330    -0.2100 hc         1 CYP       0.102700
     40 HB12         3.0610     1.2500    -0.7200 hc         1 CYP       0.102700
     41 HG11         0.3850     1.2490    -2.1640 hc         1 CYP       0.049700
     42 HG12         1.8300     0.3660    -2.6740 hc         1 CYP       0.049700
     43 HN2          1.1180     2.0060    -4.6660 hn         1 CYP       0.321500
     44 HA2          3.0870     4.1850    -4.4340 h1         1 CYP       0.115700
     45 HB21         1.3490     3.2900    -6.7620 h1         1 CYP       0.080200
     46 HB22         2.6640     4.4700    -6.8530 h1         1 CYP       0.080200
     47 HA4          3.8170     3.0360    -8.7950 h1         1 CYP       0.081700
     48 HG4          1.6160     3.8130    -9.2640 ha         1 CYP       0.135000
     49 HD4         -0.6830     3.2880    -9.9750 ha         1 CYP       0.138000
     50 HE4         -1.4900     0.9610    -9.9550 ha         1 CYP       0.133000
     51 HZ4          0.0020    -0.8570    -9.2140 ha         1 CYP       0.130000
     52 HZ5          1.0490    -2.0870    -8.1160 ha         1 CYP       0.133000
     53 HE5          2.6260    -3.8400    -7.3940 ha         1 CYP       0.126000
     54 HD5          5.0410    -3.3650    -7.3000 ha         1 CYP       0.127000
     55 HG5          5.8930    -1.1400    -7.9190 ha         1 CYP       0.127000
     56 HA5          5.4300     1.1700    -8.2950 h1         1 CYP       0.050700
     57 HO5          5.5490     1.2090   -10.3990 ho         1 CYP       0.399000
     58 HN3         -0.4900     3.7840    -4.5860 hn         1 CYP       0.326500
     59 HA31        -1.0980     6.4760    -5.2370 h1         1 CYP       0.051200
     60 HA32        -0.8940     6.3850    -3.4820 h1         1 CYP       0.051200
     61 H13         -0.3340    -0.5650     0.7550 hn         1 CYP       0.440133
@<TRIPOS>BOND
     1     1     2 1
     2     1    36 1
     3     1    37 1
     4     2     3 1
     5     2     5 1
     6     2    38 1
     7     3     4 1
     8     3     9 1
     9     5     6 1
    10     5    39 1
    11     5    40 1
    12     6     7 1
    13     6    41 1
    14     6    42 1
    15     7     8 2
    16     7    10 1
    17    10    11 1
    18    10    43 1
    19    11    12 1
    20    11    14 1
    21    11    44 1
    22    12    13 2
    23    12    31 1
    24    14    15 1
    25    14    45 1
    26    14    46 1
    27    15    16 1
    28    16    17 1
    29    16    29 1
    30    16    47 1
    31    17    18 ar
    32    17    22 ar
    33    18    19 ar
    34    18    48 1
    35    19    20 ar
    36    19    49 1
    37    20    21 ar
    38    20    50 1
    39    21    22 ar
    40    21    51 1
    41    22    23 1
    42    23    24 ar
    43    23    28 ar
    44    24    25 ar
    45    24    52 1
    46    25    26 ar
    47    25    53 1
    48    26    27 ar
    49    26    54 1
    50    27    28 ar
    51    27    55 1
    52    28    29 1
    53    29    30 1
    54    29    56 1
    55    30    57 1
    56    31    32 1
    57    31    58 1
    58    32    33 1
    59    32    59 1
    60    32    60 1
    61    33    34 1
    62    33    35 1
    63    61     1 1
@<TRIPOS>SUBSTRUCTURE
     1 CYP         1 TEMP              0 ****  ****    0 ROOT
