@<TRIPOS>MOLECULE
CYT
   13    13     1     0     0
SMALL
bcc


@<TRIPOS>ATOM
      1 N3         -0.0280   -0.1160   -0.0460 n         1 CYT     -0.496100
      2 C4          1.3540    0.0130   -0.0470 cc        1 CYT      0.334600
      3 N1         -0.0800    0.0350    2.4150 nc        1 CYT     -0.651100
      4 C2         -0.7680   -0.0920    1.1890 c         1 CYT      0.821900
      5 O2         -2.0030   -0.1950    1.0700 o         1 CYT     -0.607500
      6 N4          2.0540    0.0760   -1.2460 nh        1 CYT     -0.864600
      7 C5          2.0190    0.1280    1.1880 cd        1 CYT     -0.489600
      8 C6          1.2310    0.1380    2.3730 cd        1 CYT      0.568500
      9 HN3        -0.5470   -0.1710   -0.8950 hn        1 CYT      0.332500
     10 HN41        3.0390   -0.0240   -1.1800 hn        1 CYT      0.429800
     11 HN42        1.6270   -0.2470   -2.0800 hn        1 CYT      0.429800
     12 H5          3.1070    0.2230    1.2460 ha        1 CYT      0.155000
     13 H6          1.7400    0.2370    3.3530 h4        1 CYT      0.035800
@<TRIPOS>BOND
     1    1    2 1   
     2    1    4 1   
     3    1    9 1   
     4    2    6 1   
     5    2    7 2   
     6    3    4 1   
     7    3    8 2   
     8    4    5 2   
     9    6   10 1   
    10    6   11 1   
    11    7    8 1   
    12    7   12 1   
    13    8   13 1   
@<TRIPOS>SUBSTRUCTURE
     1 CYT         1 TEMP              0 ****  ****    0 ROOT
