@<TRIPOS>MOLECULE
molecule
   17    16     1     0     0
SMALL
bcc


@<TRIPOS>ATOM
      1 C1           0.0000     0.0000     0.0000 c          1 CYX       0.558100
      2 C2           1.4610     0.0000     0.0000 ce         1 CYX      -0.165400
      3 O3          -0.6070     0.0000     1.0500 o          1 CYX      -0.515100
      4 C4           2.1290     0.0010    -1.1550 c2         1 CYX      -0.245000
      5 C5           2.2150    -0.0020     1.3060 c3         1 CYX      -0.006200
      6 C6           2.4710     1.4380     1.7490 c3         1 CYX      -0.231600
      7 P7           3.3820     1.4340     3.3270 p5         1 CYX       1.049700
      8 O8           3.6520     2.9520     3.7940 o          1 CYX      -0.916167
      9 O9           4.7890     0.6760     3.1340 o          1 CYX      -0.916167
     10 O10          2.5820     0.7370     4.3570 o          1 CYX      -0.916167
     11 H11         -0.5410    -0.0090    -0.9380 h4         1 CYX      -0.057800
     12 H41          3.2120     0.0010    -1.1550 ha         1 CYX       0.096500
     13 H42          1.5880     0.0020    -2.0940 ha         1 CYX       0.096500
     14 H51          3.1610    -0.5130     1.1750 hc         1 CYX       0.063200
     15 H52          1.6300    -0.5140     2.0600 hc         1 CYX       0.063200
     16 H61          3.0570     1.9490     0.9950 hc         1 CYX       0.020700
     17 H62          1.5250     1.9490     1.8800 hc         1 CYX       0.020700
@<TRIPOS>BOND
     1     1     2 1
     2     1     3 2
     3     1    11 1
     4     2     4 2
     5     2     5 1
     6     4    12 1
     7     4    13 1
     8     5     6 1
     9     5    14 1
    10     5    15 1
    11     6     7 1
    12     6    16 1
    13     6    17 1
    14     7     8 1
    15     7     9 1
    16     7    10 1
@<TRIPOS>SUBSTRUCTURE
     1 CYX         1 TEMP              0 ****  ****    0 ROOT
