@<TRIPOS>MOLECULE
CYX
   17    16     1     0     0
SMALL
bcc


@<TRIPOS>ATOM
      1 C1          0.1090    0.1720    0.1990 c         1 CYX      0.572100
      2 C2          1.5340   -0.2070    0.1390 ce        1 CYX     -0.148400
      3 O3         -0.7480   -0.1770   -0.6280 o         1 CYX     -0.629100
      4 C4          2.0440   -0.8160   -0.9390 c2        1 CYX     -0.239000
      5 C5          2.3320    0.1670    1.3410 c3        1 CYX     -0.048200
      6 C6          2.4680    1.6350    1.5540 c3        1 CYX     -0.267600
      7 P7          3.3310    1.7190    3.1660 p5        1 CYX      1.211700
      8 O8          3.4590    3.2020    3.4180 o         1 CYX     -0.954500
      9 O9          4.6300    0.9900    2.9020 o         1 CYX     -0.954500
     10 O10         2.3740    0.9880    4.0850 o         1 CYX     -0.954500
     11 H11        -0.1660    0.8100    1.0720 h4        1 CYX      0.028200
     12 H41         1.4330   -1.0600   -1.8170 ha        1 CYX      0.094000
     13 H42         3.1040   -1.0900   -1.0000 ha        1 CYX      0.094000
     14 H51         1.8440   -0.2580    2.2690 hc        1 CYX      0.083200
     15 H52         3.3690   -0.2650    1.2920 hc        1 CYX      0.083200
     16 H61         3.0880    2.1300    0.7830 hc        1 CYX      0.014700
     17 H62         1.4990    2.1600    1.6480 hc        1 CYX      0.014700
@<TRIPOS>BOND
     1    1    2 1   
     2    1    3 2   
     3    1   11 1   
     4    2    4 2   
     5    2    5 1   
     6    4   12 1   
     7    4   13 1   
     8    5    6 1   
     9    5   14 1   
    10    5   15 1   
    11    6    7 1   
    12    6   16 1   
    13    6   17 1   
    14    7    8 1   
    15    7    9 1   
    16    7   10 1   
@<TRIPOS>SUBSTRUCTURE
     1 CYX         1 TEMP              0 ****  ****    0 ROOT
