@<TRIPOS>MOLECULE
molecule
   27    27     1     0     0
SMALL
bcc


@<TRIPOS>ATOM
      1 C1           0.0000     0.0000     0.0000 c3         1 CYY       0.112000
      2 C2           1.5290     0.0000     0.0000 c3         1 CYY      -0.136400
      3 C3           2.0390     0.0000     1.4420 c3         1 CYY       0.112000
      4 C4           1.5290    -1.2480     2.1640 c3         1 CYY       0.108600
      5 C5          -0.0000    -1.2480     2.1640 c3         1 CYY       0.136100
      6 C6          -0.5100    -1.2470     0.7210 c3         1 CYY       0.108600
      7 N1          -0.4900     0.0000    -1.3850 nz         1 CYY      -0.804600
      8 N3           3.5080     0.0010     1.4420 nz         1 CYY      -0.804600
      9 O4           2.0050    -1.2480     3.5100 oh         1 CYY      -0.586800
     10 O5          -0.4760    -2.4140     2.8370 oh         1 CYY      -0.564800
     11 O6          -1.9390    -1.2480     0.7210 oh         1 CYY      -0.586800
     12 H1          -0.3590     0.8830     0.5140 hx         1 CYY       0.143700
     13 H21          1.8890    -0.8860    -0.5090 hc         1 CYY       0.088700
     14 H22          1.8890     0.8860    -0.5090 hc         1 CYY       0.088700
     15 H3           1.6740     0.8830     1.9510 hx         1 CYY       0.143700
     16 H4           1.8870    -2.1320     1.6500 h1         1 CYY       0.070700
     17 H5          -0.3590    -0.3610     2.6710 h1         1 CYY       0.086700
     18 H6          -0.1440    -2.1310     0.2110 h1         1 CYY       0.070700
     19 HN11        -0.1020     0.7810    -1.8760 hn         1 CYY       0.472633
     20 HN12        -1.4890     0.0690    -1.3850 hn         1 CYY       0.472633
     21 HN31         3.8420    -0.8490     1.0310 hn         1 CYY       0.472633
     22 HN32         3.8420     0.0700     2.3830 hn         1 CYY       0.472633
     23 HO4          2.2880    -2.1160     3.7440 ho         1 CYY       0.462000
     24 HO5         -1.0010    -2.1570     3.5780 ho         1 CYY       0.458000
     25 HO6         -2.2530    -2.1170     0.5330 ho         1 CYY       0.462000
     26 H13         -0.2030    -0.8430    -1.8410 hn         1 CYY       0.472633
     27 H33          3.8420     0.7710     0.8970 hn         1 CYY       0.472633
@<TRIPOS>BOND
     1     1     2 1
     2     1     6 1
     3     1     7 1
     4     1    12 1
     5     2     3 1
     6     2    13 1
     7     2    14 1
     8     3     4 1
     9     3     8 1
    10     3    15 1
    11     4     5 1
    12     4     9 1
    13     4    16 1
    14     5     6 1
    15     5    10 1
    16     5    17 1
    17     6    11 1
    18     6    18 1
    19     7    19 1
    20     7    20 1
    21     8    21 1
    22     8    22 1
    23     9    23 1
    24    10    24 1
    25    11    25 1
    26    26     7 1
    27    27     8 1
@<TRIPOS>SUBSTRUCTURE
     1 CYY         1 TEMP              0 ****  ****    0 ROOT
