@<TRIPOS>MOLECULE
CYZ
   41    44     1     0     0
SMALL
bcc


@<TRIPOS>ATOM
      1 C1           0.0000     0.0000     0.0000 c3         1 CYZ      -0.092700
      2 C2           1.5610     0.0000     0.0000 c3         1 CYZ       0.006500
      3 C3           1.9320     0.0000     1.4870 c2         1 CYZ      -0.194200
      4 C4           1.6090     1.1960     2.0100 c2         1 CYZ      -0.141200
      5 C5           1.0170     2.0430     0.8790 c3         1 CYZ      -0.018500
      6 C6          -0.3690     1.3820     0.5930 c3         1 CYZ      -0.012400
      7 C7           1.8440     1.5090    -0.3470 c3         1 CYZ      -0.020400
      8 C8          -0.5380    -1.1250     0.8850 c3         1 CYZ       0.361700
      9 N1          -0.0780    -2.4290     0.3670 n7         1 CYZ      -0.594100
     10 S1          -0.5870    -2.8190    -1.1730 sy         1 CYZ       1.045200
     11 C9          -2.2600    -2.2560    -1.2550 ca         1 CYZ      -0.221500
     12 C10         -2.7600    -1.4510    -0.2400 ca         1 CYZ       0.212600
     13 N2          -1.9980    -1.1040     0.8720 nu         1 CYZ      -0.413600
     14 C11         -3.0510    -2.6050    -2.3280 ca         1 CYZ       0.191000
     15 C12         -4.3530    -2.1420    -2.4090 ca         1 CYZ      -0.285500
     16 C13         -4.8550    -1.3240    -1.4130 ca         1 CYZ       0.077400
     17 C14         -4.0690    -0.9820    -0.3310 ca         1 CYZ      -0.143000
     18 Cl          -6.4840    -0.7360    -1.5180 cl         1 CYZ       0.013600
     19 S2          -5.3650    -2.5870    -3.7810 sy         1 CYZ       0.952200
     20 O1          -0.6460    -4.2390    -1.2220 o          1 CYZ      -0.555300
     21 O2           0.1530    -1.9890    -2.0560 o          1 CYZ      -0.555300
     22 O3          -4.6200    -3.5510    -4.5140 o          1 CYZ      -0.491800
     23 O4          -5.8670    -1.3660    -4.3030 o          1 CYZ      -0.491800
     24 N3          -6.6800    -3.3970    -3.1830 nz         1 CYZ      -0.151500
     25 H11A        -0.3800    -0.0940    -1.0100 hc         1 CYZ       0.058700
     26 H21          2.0500    -0.7370    -0.6250 hc         1 CYZ       0.066700
     27 H31A         2.8230    -0.5160     1.8230 ha         1 CYZ       0.122000
     28 H41          2.2540     1.6560     2.7500 ha         1 CYZ       0.124000
     29 H51          1.0200     3.1170     1.0250 hc         1 CYZ       0.053700
     30 H61         -0.9310     1.2640     1.5120 hc         1 CYZ       0.021200
     31 H62         -0.9300     1.9670    -0.1260 hc         1 CYZ       0.021200
     32 H71          1.4080     1.8010    -1.2950 hc         1 CYZ       0.031200
     33 H72          2.8960     1.7570    -0.2720 hc         1 CYZ       0.031200
     34 H81         -0.1840    -0.9950     1.9010 h2         1 CYZ       0.077700
     35 HN1          0.5000    -3.0420     0.9070 hn         1 CYZ       0.375800
     36 HN2         -2.3470    -1.5830     1.6780 hn         1 CYZ       0.290800
     37 H11         -2.6550    -3.2460    -3.1070 ha         1 CYZ       0.143000
     38 H14         -4.4680    -0.3410     0.4460 ha         1 CYZ       0.150000
     39 H31         -7.3920    -2.7390    -2.9350 hn         1 CYZ       0.318467
     40 H32         -7.0320    -4.0220    -3.8800 hn         1 CYZ       0.318467
     41 H33         -6.4100    -3.9180    -2.3720 hn         1 CYZ       0.318467
@<TRIPOS>BOND
     1     1     2 1   
     2     1     6 1   
     3     1     8 1   
     4     1    25 1   
     5     2     3 1   
     6     2     7 1   
     7     2    26 1   
     8     3     4 2   
     9     3    27 1   
    10     4     5 1   
    11     4    28 1   
    12     5     6 1   
    13     5     7 1   
    14     5    29 1   
    15     6    30 1   
    16     6    31 1   
    17     7    32 1   
    18     7    33 1   
    19     8     9 1   
    20     8    13 1   
    21     8    34 1   
    22     9    10 1   
    23     9    35 1   
    24    10    11 1   
    25    10    20 2   
    26    10    21 2   
    27    11    12 ar  
    28    11    14 ar  
    29    12    13 1   
    30    12    17 ar  
    31    13    36 1   
    32    14    15 ar  
    33    14    37 1   
    34    15    16 ar  
    35    15    19 1   
    36    16    17 ar  
    37    16    18 1   
    38    17    38 1   
    39    19    22 2   
    40    19    23 2   
    41    19    24 1   
    42    24    39 1   
    43    24    40 1   
    44    24    41 1   
@<TRIPOS>SUBSTRUCTURE
     1 CYZ         1 TEMP              0 ****  ****    0 ROOT
