@<TRIPOS>MOLECULE
molecule
   29    31     1     0     0
SMALL
bcc


@<TRIPOS>ATOM
      1 C1           0.0000     0.0000     0.0000 ca         1 CZ0      -0.189000
      2 N1           3.5930    -0.0010     1.1290 no         1 CZ0       0.300200
      3 C2           1.3980     0.0000     0.0000 ca         1 CZ0       0.193100
      4 O2           4.2030     1.0540     1.1150 o          1 CZ0      -0.184500
      5 C3           2.1130     0.0000     1.1640 ca         1 CZ0      -0.164200
      6 O3           4.2010    -1.0560     1.1150 o          1 CZ0      -0.184500
      7 C4          -0.7120     0.0000     1.1580 ca         1 CZ0      -0.048000
      8 C5          -0.0310    -0.0000     2.3890 ca         1 CZ0      -0.082000
      9 C6           1.4340    -0.0000     2.3930 ca         1 CZ0       0.045000
     10 C7           2.1210    -0.0000     3.6150 ca         1 CZ0      -0.150000
     11 C8          -0.7150     0.0010     3.6080 ca         1 CZ0      -0.046000
     12 C9           0.0090     0.0020     4.7950 ca         1 CZ0      -0.139800
     13 C10          1.4240    -0.0000     4.7900 ca         1 CZ0       0.189100
     14 O11          2.0960    -0.0010     5.9670 os         1 CZ0      -0.306200
     15 C12          1.4530    -0.0010     7.1440 c          1 CZ0       0.738800
     16 C13          0.0430    -0.0020     7.2210 cc         1 CZ0      -0.262200
     17 C14         -0.6960     0.0030     6.0840 cd         1 CZ0       0.009600
     18 O15          2.0610    -0.0010    -1.1860 oh         1 CZ0      -0.502100
     19 O16          2.1030    -0.0020     8.1740 o          1 CZ0      -0.562500
     20 C17         -2.2010     0.0030     6.1420 c3         1 CZ0      -0.060900
     21 H1          -0.5290    -0.0000    -0.9460 ha         1 CZ0       0.153000
     22 H4          -1.7950     0.0000     1.1330 ha         1 CZ0       0.148000
     23 H7           3.2040     0.0360     3.6270 ha         1 CZ0       0.174000
     24 H8          -1.7870    -0.1550     3.6280 ha         1 CZ0       0.150000
     25 H13         -0.4470    -0.0020     8.1870 ha         1 CZ0       0.174000
     26 HO15         1.8190     0.7640    -1.6820 ho         1 CZ0       0.440000
     27 H17         -2.5810    -0.9050     5.6900 hc         1 CZ0       0.056700
     28 H17A        -2.5230     0.0550     7.1750 hc         1 CZ0       0.056700
     29 H17B        -2.5830     0.8620     5.6020 hc         1 CZ0       0.056700
@<TRIPOS>BOND
     1     1     3 ar
     2     1     7 ar
     3     2     4 1
     4     2     5 1
     5     2     6 1
     6     3     5 ar
     7     3    18 1
     8     5     9 ar
     9     7     8 ar
    10     8     9 ar
    11     8    11 ar
    12     9    10 ar
    13    10    13 ar
    14    11    12 ar
    15    12    13 ar
    16    12    17 1
    17    13    14 1
    18    14    15 1
    19    15    16 1
    20    15    19 2
    21    16    17 2
    22    17    20 1
    23     1    21 1
    24     7    22 1
    25    10    23 1
    26    11    24 1
    27    16    25 1
    28    18    26 1
    29    20    27 1
    30    20    28 1
    31    20    29 1
@<TRIPOS>SUBSTRUCTURE
     1 CZ0         1 TEMP              0 ****  ****    0 ROOT
