@<TRIPOS>MOLECULE
molecule
   77    80     1     0     0
SMALL
bcc


@<TRIPOS>ATOM
      1 C1           0.0000     0.0000     0.0000 ca         1 CZ4       0.128600
      2 C2           1.3880     0.0000     0.0000 ca         1 CZ4      -0.089000
      3 C3           2.0770     0.0000     1.1970 ca         1 CZ4      -0.100300
      4 C4           1.3890     0.0000     2.3960 ca         1 CZ4      -0.056300
      5 C5           0.0060    -0.0000     2.4040 ca         1 CZ4      -0.200000
      6 C6          -0.6930     0.0060     1.2070 ca         1 CZ4       0.109100
      7 C7           3.5840    -0.0010     1.1960 c3         1 CZ4      -0.040800
      8 C9          -2.6960    -0.1170     2.4840 c3         1 CZ4       0.140100
      9 C10         -2.7490     1.2510     3.1640 c3         1 CZ4      -0.106600
     10 C11         -4.1190    -0.6440     2.2860 c3         1 CZ4      -0.106600
     11 C13         -0.1600     0.6180    -2.3280 ca         1 CZ4       0.974900
     12 C15          1.5160     1.9090    -3.2440 ca         1 CZ4       0.536200
     13 C16          0.8970     1.8280    -4.4760 ca         1 CZ4      -0.340200
     14 O38         -1.7570     1.8600    -8.3850 o          1 CZ4      -0.610300
     15 O37         -3.8000     0.7930    -9.2870 o          1 CZ4      -0.610300
     16 C26         -1.5210    -0.5900    -9.4190 c3         1 CZ4      -0.186900
     17 C28         -1.0260    -0.0980   -10.7800 c3         1 CZ4      -0.075100
     18 C27         -0.3220    -0.9020    -8.5220 c3         1 CZ4      -0.075100
     19 C24         -2.9090     0.0610    -7.0440 cc         1 CZ4       0.113200
     20 N23         -3.9440    -0.6780    -6.7350 nd         1 CZ4      -0.407800
     21 N22         -3.8770    -0.9830    -5.3700 na         1 CZ4       0.078400
     22 C36         -4.8430    -1.7900    -4.6190 c3         1 CZ4       0.063600
     23 C21         -2.7600    -0.3980    -4.8660 cd         1 CZ4      -0.134300
     24 C20         -2.1440     0.2550    -5.8840 cc         1 CZ4      -0.002700
     25 C17         -0.2920     1.1000    -4.5780 ca         1 CZ4       0.774200
     26 Cl1          1.5800     2.6120    -5.8670 cl         1 CZ4      -0.093400
     27 N18         -0.7840     0.5150    -3.4910 nb         1 CZ4      -0.869000
     28 N14          0.9690     1.3010    -2.2020 nb         1 CZ4      -0.818000
     29 N12         -0.7020    -0.0010    -1.2130 nu         1 CZ4      -0.739300
     30 O8          -2.0530     0.0070     1.2130 os         1 CZ4      -0.336900
     31 C29          2.1470    -0.0060     3.6990 c3         1 CZ4      -0.024400
     32 C34          1.6730     1.1580     4.5720 c3         1 CZ4      -0.115400
     33 C33          2.4020     1.1100     5.9170 c3         1 CZ4       0.160300
     34 N32          2.1240    -0.1700     6.5810 n3         1 CZ4      -0.721600
     35 C32          0.6910    -0.3120     6.8720 c3         1 CZ4       0.146100
     36 C31          2.6140    -1.3000     5.7820 c3         1 CZ4       0.160300
     37 C30          1.8910    -1.3240     4.4340 c3         1 CZ4      -0.115400
     38 H1           1.9300    -0.0020    -0.9380 ha         1 CZ4       0.168000
     39 H2          -0.5300     0.0020     3.3450 ha         1 CZ4       0.142000
     40 H3           3.9460    -0.8590     1.7490 hc         1 CZ4       0.042367
     41 H4           3.9450    -0.0510     0.1750 hc         1 CZ4       0.042367
     42 H5           3.9460     0.9070     1.6620 hc         1 CZ4       0.042367
     43 H6          -2.1400    -0.8090     3.1050 h1         1 CZ4       0.045700
     44 H7          -1.9350     1.8670     2.8010 hc         1 CZ4       0.047200
     45 H8          -2.6570     1.1260     4.2360 hc         1 CZ4       0.047200
     46 H9          -3.6930     1.7310     2.9370 hc         1 CZ4       0.047200
     47 H10         -4.0800    -1.6480     1.8820 hc         1 CZ4       0.047200
     48 H11         -4.6350    -0.6570     3.2380 hc         1 CZ4       0.047200
     49 H12         -4.6500     0.0020     1.5960 hc         1 CZ4       0.047200
     50 H13          2.4390     2.4650    -3.1300 h4         1 CZ4       0.041100
     51 H14         -2.1180    -1.4840    -9.5530 h1         1 CZ4       0.109700
     52 H15         -0.4970    -0.8980   -11.2830 hc         1 CZ4       0.051700
     53 H16         -1.8720     0.2110   -11.3830 hc         1 CZ4       0.051700
     54 H17         -0.3580     0.7430   -10.6390 hc         1 CZ4       0.051700
     55 H18          0.1670     0.0220    -8.2380 hc         1 CZ4       0.051700
     56 H19          0.3770    -1.5300    -9.0610 hc         1 CZ4       0.051700
     57 H20         -0.6610    -1.4200    -7.6330 hc         1 CZ4       0.051700
     58 H21         -5.1890    -1.2310    -3.7590 h1         1 CZ4       0.059367
     59 H22         -4.3670    -2.7060    -4.2880 h1         1 CZ4       0.059367
     60 H23         -5.6850    -2.0310    -5.2560 h1         1 CZ4       0.059367
     61 H24         -2.4220    -0.4440    -3.8380 h4         1 CZ4       0.225000
     62 H25         -0.5990     1.4780    -6.5960 hn         1 CZ4       0.495800
     63 H26         -1.5750    -0.4840    -1.2840 hn         1 CZ4       0.468800
     64 H27          3.2080     0.0990     3.5060 hc         1 CZ4       0.063700
     65 H28          1.8930     2.0950     4.0760 hc         1 CZ4       0.049450
     66 H29          0.6050     1.0720     4.7380 hc         1 CZ4       0.049450
     67 H30          3.4690     1.2050     5.7520 h1         1 CZ4       0.054950
     68 H31          2.0550     1.9230     6.5440 h1         1 CZ4       0.054950
     69 H33          0.3460     0.5560     7.4210 h1         1 CZ4       0.032700
     70 H34          0.5310    -1.2030     7.4670 h1         1 CZ4       0.032700
     71 H35          0.1410    -0.3940     5.9430 h1         1 CZ4       0.032700
     72 H36          2.4210    -2.2250     6.3110 h1         1 CZ4       0.054950
     73 H37          3.6790    -1.1880     5.6170 h1         1 CZ4       0.054950
     74 H38          2.2670    -2.1470     3.8380 hc         1 CZ4       0.049450
     75 H39          0.8270    -1.4450     4.5970 hc         1 CZ4       0.049450
     76 N19         -0.9470     0.9910    -5.7940 nu         1 CZ4      -0.729300
     77 S25         -2.5360     0.6990    -8.6440 sy         1 CZ4       1.148900
@<TRIPOS>BOND
     1    36    37 1
     2    36    34 1
     3    35    34 1
     4    37    31 1
     5    34    33 1
     6    22    21 1
     7    33    32 1
     8    31    32 1
     9    31     4 1
    10    21    20 1
    11    21    23 1
    12    20    19 2
    13     4     5 ar
    14     4     3 ar
    15     5     6 ar
    16    23    24 2
    17     9     8 1
    18    10     8 1
    19     7     3 1
    20     3     2 ar
    21     6    30 1
    22     6     1 ar
    23    30     8 1
    24    19    24 1
    25    19    77 1
    26    14    77 2
    27    24    76 1
    28     2     1 ar
    29     1    29 1
    30    77    15 2
    31    77    16 1
    32    29    11 1
    33    27    11 ar
    34    27    25 ar
    35    76    25 1
    36    18    16 1
    37    11    28 ar
    38    25    13 ar
    39    16    17 1
    40    28    12 ar
    41    13    12 ar
    42    13    26 1
    43     2    38 1
    44     5    39 1
    45     7    40 1
    46     7    41 1
    47     7    42 1
    48     8    43 1
    49     9    44 1
    50     9    45 1
    51     9    46 1
    52    10    47 1
    53    10    48 1
    54    10    49 1
    55    12    50 1
    56    16    51 1
    57    17    52 1
    58    17    53 1
    59    17    54 1
    60    18    55 1
    61    18    56 1
    62    18    57 1
    63    22    58 1
    64    22    59 1
    65    22    60 1
    66    23    61 1
    67    76    62 1
    68    29    63 1
    69    31    64 1
    70    32    65 1
    71    32    66 1
    72    33    67 1
    73    33    68 1
    74    35    69 1
    75    35    70 1
    76    35    71 1
    77    36    72 1
    78    36    73 1
    79    37    74 1
    80    37    75 1
@<TRIPOS>SUBSTRUCTURE
     1 CZ4         1 TEMP              0 ****  ****    0 ROOT
