@<TRIPOS>MOLECULE
CZA
   45    49     1     0     0
SMALL
bcc


@<TRIPOS>ATOM
      1 O2         -0.0350    0.2060    0.0600 o         1 CZA     -0.543100
      2 C6          1.1930    0.1650    0.0890 c         1 CZA      0.605300
      3 C3          2.1000    0.1060    1.2370 ce        1 CZA     -0.505400
      4 C2          1.7390    0.1380    2.6340 c         1 CZA      0.628300
      5 O1          2.6140    0.0940    3.5240 o         1 CZA     -0.621100
      6 C1          0.2860    0.2240    2.9610 c3        1 CZA     -0.183100
      7 C5          2.1050    0.2140   -1.1560 c3        1 CZA      0.059500
      8 C7          1.9310   -0.9280   -2.1700 c3        1 CZA      0.030500
      9 C15         0.9640   -0.6520   -3.2340 cc        1 CZA     -0.158400
     10 C16        -0.4270   -0.6430   -3.3140 cd        1 CZA     -0.063100
     11 N2         -0.8230   -0.4210   -4.6430 na        1 CZA     -0.192400
     12 C17         0.3210   -0.2730   -5.4370 ca        1 CZA     -0.039200
     13 C14         1.4490   -0.4070   -4.5670 ca        1 CZA     -0.103800
     14 C18         0.5500   -0.0470   -6.8050 ca        1 CZA     -0.138000
     15 C19         1.8710    0.0360   -7.2280 ca        1 CZA     -0.113000
     16 C20         2.9730   -0.0800   -6.3540 ca        1 CZA     -0.147000
     17 C13         2.7690   -0.2970   -4.9980 ca        1 CZA     -0.038300
     18 C12         3.7980   -0.3400   -3.9250 c3        1 CZA     -0.023100
     19 C8          3.3770   -1.1580   -2.7050 c3        1 CZA     -0.058700
     20 C9          4.2810   -0.8460   -1.4580 c3        1 CZA      0.207200
     21 C10         4.5310   -2.1750   -0.7260 c3        1 CZA     -0.105100
     22 C11         5.6500   -0.2730   -1.8280 c3        1 CZA     -0.105100
     23 N1          3.5090    0.1340   -0.6500 nh        1 CZA     -0.595400
     24 C4          3.4140    0.0120    0.7510 c2        1 CZA      0.420100
     25 O3          4.5500   -0.1220    1.4700 oh        1 CZA     -0.471100
     26 HO3         4.3210   -0.0340    2.4220 ho        1 CZA      0.491000
     27 H11        -0.2480   -0.6570    2.5250 hc        1 CZA      0.069700
     28 H12         0.1300    0.2470    4.0660 hc        1 CZA      0.069700
     29 H13        -0.1480    1.1460    2.5000 hc        1 CZA      0.069700
     30 H5          1.9790    1.2140   -1.6590 h1        1 CZA      0.116700
     31 H7          1.6150   -1.8580   -1.6150 hc        1 CZA      0.064700
     32 H161       -1.1700   -0.7660   -2.5220 h4        1 CZA      0.182000
     33 HN2        -1.7510   -0.3250   -4.9530 hn        1 CZA      0.300700
     34 H18        -0.2800    0.0600   -7.5140 ha        1 CZA      0.133000
     35 H19         2.0730    0.2070   -8.2970 ha        1 CZA      0.129000
     36 H20         3.9910    0.0100   -6.7580 ha        1 CZA      0.131000
     37 H121        4.7590   -0.7590   -4.3250 hc        1 CZA      0.058700
     38 H122        3.9920    0.7240   -3.6130 hc        1 CZA      0.058700
     39 H8          3.4810   -2.2440   -2.9700 hc        1 CZA      0.070700
     40 H101        3.5670   -2.6770   -0.4700 hc        1 CZA      0.051200
     41 H102        5.1210   -2.8510   -1.3900 hc        1 CZA      0.051200
     42 H103        5.1130   -2.0050    0.2130 hc        1 CZA      0.051200
     43 H111        5.5720    0.7460   -2.2760 hc        1 CZA      0.051200
     44 H112        6.2880   -0.2020   -0.9130 hc        1 CZA      0.051200
     45 H113        6.1420   -0.9560   -2.5610 hc        1 CZA      0.051200
@<TRIPOS>BOND
     1    1    2 2
     2    2    3 1
     3    2    7 1
     4    3    4 1
     5    3   24 2
     6    4    5 2
     7    4    6 1
     8    6   27 1
     9    6   28 1
    10    6   29 1
    11    7    8 1
    12    7   23 1
    13    7   30 1
    14    8    9 1
    15    8   19 1
    16    8   31 1
    17    9   10 2
    18    9   13 1
    19   10   11 1
    20   10   32 1
    21   11   12 1
    22   11   33 1
    23   12   13 ar
    24   12   14 ar
    25   13   17 ar
    26   14   15 ar
    27   14   34 1
    28   15   16 ar
    29   15   35 1
    30   16   17 ar
    31   16   36 1
    32   17   18 1
    33   18   19 1
    34   18   37 1
    35   18   38 1
    36   19   20 1
    37   19   39 1
    38   20   21 1
    39   20   22 1
    40   20   23 1
    41   21   40 1
    42   21   41 1
    43   21   42 1
    44   22   43 1
    45   22   44 1
    46   22   45 1
    47   23   24 1
    48   24   25 1
    49   25   26 1
@<TRIPOS>SUBSTRUCTURE
     1 CZA         1 TEMP              0 ****  ****    0 ROOT
