@<TRIPOS>MOLECULE
CZB
   56    60     1     0     0
SMALL
bcc


@<TRIPOS>ATOM
      1 O18          0.0000     0.0000     0.0000 o          1 CZB      -0.600500
      2 C3           1.2130     0.0000     0.0000 c          1 CZB       0.575500
      3 N4           2.0320     0.0000     1.0670 n          1 CZB       0.104500
      4 C5           1.6780    -0.0010     2.4260 c2         1 CZB      -0.229400
      5 C9           3.3590     0.0020     0.6630 c2         1 CZB       0.285900
      6 C8           4.4680     0.0020     1.7050 c3         1 CZB       0.150200
      7 C26          4.8400    -1.4330     2.0820 c3         1 CZB       0.017900
      8 C27          5.4410    -2.1280     0.8870 ca         1 CZB      -0.099300
      9 C28          6.7840    -1.9740     0.6010 ca         1 CZB      -0.087000
     10 C29          7.3340    -2.6100    -0.4950 ca         1 CZB      -0.093000
     11 C30          6.5420    -3.4010    -1.3050 ca         1 CZB      -0.096000
     12 C31          5.1980    -3.5570    -1.0190 ca         1 CZB      -0.093000
     13 C32          4.6490    -2.9220     0.0800 ca         1 CZB      -0.087000
     14 N7           3.9080     0.7140     2.8750 nu         1 CZB      -0.455000
     15 C6           2.6240     0.3490     3.3210 ce         1 CZB       0.036800
     16 C19          2.3130     0.3490     4.7670 ca         1 CZB      -0.081800
     17 C20          1.1420     0.9510     5.2320 ca         1 CZB      -0.063500
     18 C21          0.8560     0.9490     6.5800 ca         1 CZB      -0.139500
     19 C24          3.1870    -0.2580     5.6710 ca         1 CZB      -0.063500
     20 C23          2.8950    -0.2520     7.0180 ca         1 CZB      -0.139500
     21 C22          1.7300     0.3480     7.4760 ca         1 CZB       0.134100
     22 O25          1.4440     0.3480     8.8050 oh         1 CZB      -0.500100
     23 N1           3.4890     0.0030    -0.6100 n2         1 CZB      -0.561900
     24 C2           2.1400     0.0010    -1.2020 c3         1 CZB       0.226000
     25 O33          1.9400    -1.1730    -1.9900 os         1 CZB      -0.160800
     26 O34          2.0480    -2.3200    -1.0800 oh         1 CZB      -0.419000
     27 C10          1.9220     1.2580    -2.0460 c3         1 CZB       0.058900
     28 C11          2.8880     1.2590    -3.2040 ca         1 CZB      -0.084300
     29 C12          2.5300     0.6710    -4.4030 ca         1 CZB      -0.074000
     30 C13          3.4140     0.6720    -5.4650 ca         1 CZB      -0.085000
     31 C14          4.6590     1.2600    -5.3270 ca         1 CZB       0.040100
     32 Br17         5.8700     1.2610    -6.7800 br         1 CZB      -0.140100
     33 C15          5.0170     1.8480    -4.1280 ca         1 CZB      -0.085000
     34 C16          4.1280     1.8520    -3.0680 ca         1 CZB      -0.074000
     35 H5           0.7890    -0.5260     2.7540 h4         1 CZB       0.154000
     36 H8           5.3340     0.5320     1.3260 h1         1 CZB       0.058700
     37 H261         3.9510    -1.9650     2.4000 hc         1 CZB       0.028200
     38 H262         5.5600    -1.4190     2.8910 hc         1 CZB       0.028200
     39 H28          7.4060    -1.3540     1.2360 ha         1 CZB       0.104500
     40 H29          8.3870    -2.4890    -0.7200 ha         1 CZB       0.101000
     41 H30          6.9730    -3.8990    -2.1650 ha         1 CZB       0.101000
     42 H31          4.5770    -4.1780    -1.6530 ha         1 CZB       0.101000
     43 H32          3.5960    -3.0440     0.3050 ha         1 CZB       0.104500
     44 HN7          4.4270     1.4350     3.3350 hn         1 CZB       0.305800
     45 H20          0.4600     1.4210     4.5340 ha         1 CZB       0.111500
     46 H21         -0.0520     1.4170     6.9420 ha         1 CZB       0.117000
     47 H24          4.0960    -0.7270     5.3150 ha         1 CZB       0.111500
     48 H23          3.5730    -0.7210     7.7210 ha         1 CZB       0.117000
     49 H25          1.8120     1.1180     9.2060 ho         1 CZB       0.404000
     50 H34          1.5180    -3.0300    -1.4040 ho         1 CZB       0.406000
     51 H101         2.0890     2.1370    -1.4360 hc         1 CZB       0.036700
     52 H102         0.9070     1.2680    -2.4240 hc         1 CZB       0.036700
     53 H12          1.5550     0.2110    -4.5100 ha         1 CZB       0.110500
     54 H13          3.1330     0.2110    -6.4040 ha         1 CZB       0.115000
     55 H15          5.9910     2.3100    -4.0210 ha         1 CZB       0.115000
     56 H16          4.4080     2.3130    -2.1280 ha         1 CZB       0.110500
@<TRIPOS>BOND
     1     1     2 2   
     2     2     3 1   
     3     2    24 1   
     4     3     4 1   
     5     3     5 1   
     6     4    15 2   
     7     4    35 1   
     8     5     6 1   
     9     5    23 2   
    10     6     7 1   
    11     6    14 1   
    12     6    36 1   
    13     7     8 1   
    14     7    37 1   
    15     7    38 1   
    16     8     9 ar  
    17     8    13 ar  
    18     9    10 ar  
    19     9    39 1   
    20    10    11 ar  
    21    10    40 1   
    22    11    12 ar  
    23    11    41 1   
    24    12    13 ar  
    25    12    42 1   
    26    13    43 1   
    27    14    15 1   
    28    14    44 1   
    29    15    16 1   
    30    16    17 ar  
    31    16    19 ar  
    32    17    18 ar  
    33    17    45 1   
    34    18    21 ar  
    35    18    46 1   
    36    19    20 ar  
    37    19    47 1   
    38    20    21 ar  
    39    20    48 1   
    40    21    22 1   
    41    22    49 1   
    42    23    24 1   
    43    24    25 1   
    44    24    27 1   
    45    25    26 1   
    46    26    50 1   
    47    27    28 1   
    48    27    51 1   
    49    27    52 1   
    50    28    29 ar  
    51    28    34 ar  
    52    29    30 ar  
    53    29    53 1   
    54    30    31 ar  
    55    30    54 1   
    56    31    32 1   
    57    31    33 ar  
    58    33    34 ar  
    59    33    55 1   
    60    34    56 1   
@<TRIPOS>SUBSTRUCTURE
     1 CZB         1 TEMP              0 ****  ****    0 ROOT
