@<TRIPOS>MOLECULE
CZE
   51    53     1     0     0
SMALL
bcc


@<TRIPOS>ATOM
      1 OAC          0.0000     0.0000     0.0000 o          1 CZE      -0.892300
      2 CBA          1.3430     0.0000     0.0000 c          1 CZE       0.975600
      3 OAD          1.9460     0.0000     1.0470 o          1 CZE      -0.892300
      4 CAZ          2.0970    -0.0010    -1.3040 c3         1 CZE       0.093400
      5 OAB          3.5020    -0.0010    -1.0430 os         1 CZE      -0.363600
      6 CAO          4.3120    -0.0020    -2.2200 c3         1 CZE       0.192400
      7 CAL          5.7890    -0.0020    -1.8220 c3         1 CZE       0.149800
      8 NAF          6.1090    -1.2570    -1.1300 n3         1 CZE      -0.507600
      9 CAJ          7.3410    -1.1230    -0.3370 c3         1 CZE       0.152300
     10 CAH          7.5960    -2.4230     0.4290 c3         1 CZE       0.137800
     11 CAI          6.2190    -2.3710    -2.0830 c3         1 CZE       0.152300
     12 CAG          6.4740    -3.6720    -1.3170 c3         1 CZE       0.137800
     13 NAE          7.7040    -3.5370    -0.5250 n3         1 CZE      -0.549600
     14 CAK          8.0250    -4.7920     0.1680 c3         1 CZE       0.244100
     15 CAM          9.3380    -4.6450     0.8920 ca         1 CZE      -0.078300
     16 CAP          9.4980    -5.1920     2.1510 ca         1 CZE      -0.077500
     17 CAT         10.7020    -5.0580     2.8170 ca         1 CZE      -0.105000
     18 CAX         11.7490    -4.3760     2.2210 ca         1 CZE      -0.032600
     19 ClAA        13.2610    -4.2080     3.0550 cl         1 CZE      -0.047400
     20 CAU         11.5890    -3.8300     0.9600 ca         1 CZE      -0.105000
     21 CAQ         10.3860    -3.9700     0.2940 ca         1 CZE      -0.077500
     22 CAN          8.1290    -5.9090    -0.8400 ca         1 CZE      -0.084300
     23 CAR          8.7430    -5.6850    -2.0570 ca         1 CZE      -0.088000
     24 CAV          8.8380    -6.7100    -2.9820 ca         1 CZE      -0.106500
     25 CAY          8.3200    -7.9570    -2.6870 ca         1 CZE      -0.106000
     26 CAW          7.7060    -8.1800    -1.4690 ca         1 CZE      -0.106500
     27 CAS          7.6150    -7.1570    -0.5430 ca         1 CZE      -0.088000
     28 H2           1.8360     0.8830    -1.8730 h1         1 CZE      -0.020800
     29 H3           1.8350    -0.8860    -1.8720 h1         1 CZE      -0.020800
     30 H4           4.0950    -0.8860    -2.8070 h1         1 CZE      -0.022300
     31 H5           4.0960     0.8830    -2.8070 h1         1 CZE      -0.022300
     32 H6           6.4020     0.0870    -2.7110 h1         1 CZE       0.005700
     33 H7           5.9850     0.8350    -1.1620 h1         1 CZE       0.005700
     34 H9           8.1750    -0.9250    -0.9990 h1         1 CZE       0.010700
     35 H10          7.2290    -0.3070     0.3660 h1         1 CZE       0.010700
     36 H11          8.5200    -2.3370     0.9880 h1         1 CZE       0.024450
     37 H12          6.7720    -2.6090     1.1070 h1         1 CZE       0.024450
     38 H13          7.0430    -2.1850    -2.7610 h1         1 CZE       0.010700
     39 H14          5.2950    -2.4580    -2.6420 h1         1 CZE       0.010700
     40 H15          6.5860    -4.4880    -2.0200 h1         1 CZE       0.024450
     41 H16          5.6390    -3.8690    -0.6550 h1         1 CZE       0.024450
     42 H18          7.2420    -5.0210     0.8810 h1         1 CZE       0.024700
     43 H19          8.6780    -5.7260     2.6170 ha         1 CZE       0.118000
     44 H20         10.8260    -5.4870     3.8040 ha         1 CZE       0.111000
     45 H21         12.4080    -3.2980     0.4920 ha         1 CZE       0.111000
     46 H22         10.2600    -3.5420    -0.6930 ha         1 CZE       0.118000
     47 H23          9.1490    -4.7080    -2.2890 ha         1 CZE       0.114500
     48 H24          9.3190    -6.5350    -3.9370 ha         1 CZE       0.099000
     49 H25          8.3930    -8.7590    -3.4110 ha         1 CZE       0.097000
     50 H26          7.3020    -9.1580    -1.2370 ha         1 CZE       0.099000
     51 H27          7.1340    -7.3320     0.4120 ha         1 CZE       0.114500
@<TRIPOS>BOND
     1     1     2 1   
     2     2     3 1   
     3     2     4 1   
     4     4     5 1   
     5     4    28 1   
     6     4    29 1   
     7     5     6 1   
     8     6     7 1   
     9     6    30 1   
    10     6    31 1   
    11     7     8 1   
    12     7    32 1   
    13     7    33 1   
    14     8     9 1   
    15     8    11 1   
    16     9    10 1   
    17     9    34 1   
    18     9    35 1   
    19    10    13 1   
    20    10    36 1   
    21    10    37 1   
    22    11    12 1   
    23    11    38 1   
    24    11    39 1   
    25    12    13 1   
    26    12    40 1   
    27    12    41 1   
    28    13    14 1   
    29    14    15 1   
    30    14    22 1   
    31    14    42 1   
    32    15    16 ar  
    33    15    21 ar  
    34    16    17 ar  
    35    16    43 1   
    36    17    18 ar  
    37    17    44 1   
    38    18    19 1   
    39    18    20 ar  
    40    20    21 ar  
    41    20    45 1   
    42    21    46 1   
    43    22    23 ar  
    44    22    27 ar  
    45    23    24 ar  
    46    23    47 1   
    47    24    25 ar  
    48    24    48 1   
    49    25    26 ar  
    50    25    49 1   
    51    26    27 ar  
    52    26    50 1   
    53    27    51 1   
@<TRIPOS>SUBSTRUCTURE
     1 CZE         1 TEMP              0 ****  ****    0 ROOT
