@<TRIPOS>MOLECULE
molecule
   46    49     1     0     0
SMALL
bcc


@<TRIPOS>ATOM
      1 C4           0.0000     0.0000     0.0000 ca         1 CZG      -0.169200
      2 C5           1.3880     0.0000     0.0000 ca         1 CZG      -0.071000
      3 C6           2.0860     0.0000     1.1910 ca         1 CZG      -0.127000
      4 C7           1.3990     0.0020     2.3940 ca         1 CZG      -0.060200
      5 C15         -3.0090     0.1310     9.8000 ca         1 CZG       0.017600
      6 C17         -4.4440    -0.2690    11.6790 ca         1 CZG      -0.162500
      7 C20         -5.0040     0.0730    14.2910 ca         1 CZG       0.100100
      8 C21         -5.9920     0.9900    14.6190 ca         1 CZG      -0.139500
      9 C22         -7.2170     0.5500    15.0830 ca         1 CZG      -0.119000
     10 C24         -6.4760    -1.7220    14.8940 ca         1 CZG      -0.119000
     11 C26         -2.3630     0.8950    11.9800 ca         1 CZG      -0.162500
     12 O1          -0.1200    -0.0010    -2.3370 o          1 CZG      -0.206500
     13 N2          -0.7340    -0.0010    -1.2860 no         1 CZG       0.299200
     14 O3          -1.9520    -0.0000    -1.2910 o          1 CZG      -0.206500
     15 N8           1.7900     0.0020     3.7230 na         1 CZG      -0.243300
     16 C9           0.6520     0.0030     4.4800 cc         1 CZG       0.436700
     17 S10          0.6070     0.0050     6.2410 ss         1 CZG      -0.077300
     18 C11         -1.1830     0.0050     6.5100 c3         1 CZG      -0.095300
     19 C12         -1.4680     0.0060     7.9910 c          1 CZG       0.672100
     20 O13         -0.5520     0.0060     8.7840 o          1 CZG      -0.583100
     21 N14         -2.7420     0.0060     8.4310 ns         1 CZG      -0.462100
     22 C16         -4.1810    -0.3910    10.3300 ca         1 CZG      -0.115000
     23 C18         -3.5370     0.3770    12.5070 ca         1 CZG       0.123100
     24 O19         -3.7990     0.5030    13.8350 os         1 CZG      -0.247200
     25 C23         -7.4580    -0.8040    15.2200 ca         1 CZG      -0.130000
     26 C25         -5.2480    -1.2860    14.4350 ca         1 CZG      -0.139500
     27 C27         -2.0990     0.7740    10.6300 ca         1 CZG      -0.115000
     28 N28         -0.4010     0.0020     3.7000 nd         1 CZG      -0.617100
     29 C29         -0.0060     0.0020     2.4000 ca         1 CZG       0.093400
     30 C30         -0.6990    -0.0040     1.1870 ca         1 CZG      -0.010000
     31 H1           1.9260     0.0000    -0.9400 ha         1 CZG       0.170000
     32 H2           3.1690     0.0000     1.1840 ha         1 CZG       0.145000
     33 H3          -5.3600    -0.6750    12.0910 ha         1 CZG       0.149500
     34 H4          -5.8030     2.0520    14.5110 ha         1 CZG       0.145000
     35 H5          -7.9880     1.2660    15.3390 ha         1 CZG       0.135500
     36 H6          -6.6670    -2.7820    15.0050 ha         1 CZG       0.135500
     37 H7          -1.6540     1.3980    12.6270 ha         1 CZG       0.149500
     38 H8           2.7220     0.1360     4.0620 hn         1 CZG       0.318700
     39 H9          -1.6160     0.8890     6.0590 h1         1 CZG       0.101200
     40 H10         -1.6160    -0.8800     6.0600 h1         1 CZG       0.101200
     41 H11         -3.4890    -0.1840     7.7930 hn         1 CZG       0.328500
     42 H12         -4.8900    -0.8960     9.6830 ha         1 CZG       0.152000
     43 H13         -8.4190    -1.1480    15.5820 ha         1 CZG       0.133000
     44 H14         -4.4790    -2.0050    14.1800 ha         1 CZG       0.145000
     45 H15         -1.1820     1.1780    10.2180 ha         1 CZG       0.152000
     46 H17         -1.7820    -0.0040     1.1790 ha         1 CZG       0.176000
@<TRIPOS>BOND
     1    12    13 1
     2    28    29 1
     3    28    16 2
     4    30    29 ar
     5    30     1 ar
     6    20    19 2
     7    13     1 1
     8    13    14 1
     9    17    16 1
    10    17    18 1
    11    29     4 ar
    12    16    15 1
    13     1     2 ar
    14    10    26 ar
    15    10    25 ar
    16    19    18 1
    17    19    21 1
    18    26     7 ar
    19    22     6 ar
    20    22     5 ar
    21     6    23 ar
    22     4    15 1
    23     4     3 ar
    24    25     9 ar
    25     2     3 ar
    26     7    24 1
    27     7     8 ar
    28     5    21 1
    29     5    27 ar
    30    23    24 1
    31    23    11 ar
    32     9     8 ar
    33    27    11 ar
    34     2    31 1
    35     3    32 1
    36     6    33 1
    37     8    34 1
    38     9    35 1
    39    10    36 1
    40    11    37 1
    41    15    38 1
    42    18    39 1
    43    18    40 1
    44    21    41 1
    45    22    42 1
    46    25    43 1
    47    26    44 1
    48    27    45 1
    49    30    46 1
@<TRIPOS>SUBSTRUCTURE
     1 CZG         1 TEMP              0 ****  ****    0 ROOT
