@<TRIPOS>MOLECULE
CZG
   46    49     1     0     0
SMALL
bcc


@<TRIPOS>ATOM
      1 C4           0.0000     0.0000     0.0000 ca         1 CZG      -0.463200
      2 C5           1.3880     0.0000     0.0000 ca         1 CZG      -0.023000
      3 C6           2.0860     0.0000     1.1910 ca         1 CZG      -0.093000
      4 C7           1.3990     0.0020     2.3940 ca         1 CZG      -0.237200
      5 C15         -3.0090     0.1310     9.8000 ca         1 CZG      -0.136400
      6 C17         -4.4440    -0.2690    11.6790 ca         1 CZG      -0.150000
      7 C20         -5.0040     0.0730    14.2910 ca         1 CZG       0.104100
      8 C21         -5.9920     0.9900    14.6190 ca         1 CZG      -0.121000
      9 C22         -7.2170     0.5500    15.0830 ca         1 CZG      -0.086500
     10 C24         -6.4760    -1.7220    14.8940 ca         1 CZG      -0.086500
     11 C26         -2.3630     0.8950    11.9800 ca         1 CZG      -0.150000
     12 O1          -0.1200    -0.0010    -2.3370 o          1 CZG      -0.452000
     13 N2          -0.7340    -0.0010    -1.2860 no         1 CZG       1.052200
     14 O3          -1.9520    -0.0000    -1.2910 o          1 CZG      -0.452000
     15 N8           1.7900     0.0020     3.7230 na         1 CZG       0.307700
     16 C9           0.6520     0.0030     4.4800 cc         1 CZG       0.255700
     17 S10          0.6070     0.0050     6.2410 ss         1 CZG      -0.212300
     18 C11         -1.1830     0.0050     6.5100 c3         1 CZG       0.016700
     19 C12         -1.4680     0.0060     7.9910 c          1 CZG       0.570100
     20 O13         -0.5520     0.0060     8.7840 o          1 CZG      -0.614100
     21 N14         -2.7420     0.0060     8.4310 ns         1 CZG      -0.012100
     22 C16         -4.1810    -0.3910    10.3300 ca         1 CZG      -0.083500
     23 C18         -3.5370     0.3770    12.5070 ca         1 CZG       0.134100
     24 O19         -3.7990     0.5030    13.8350 os         1 CZG      -0.219200
     25 C23         -7.4580    -0.8040    15.2200 ca         1 CZG      -0.107000
     26 C25         -5.2480    -1.2860    14.4350 ca         1 CZG      -0.121000
     27 C27         -2.0990     0.7740    10.6300 ca         1 CZG      -0.083500
     28 N28         -0.4010     0.0020     3.7000 nd         1 CZG      -0.534100
     29 C29         -0.0060     0.0020     2.4000 ca         1 CZG       0.051400
     30 C30         -0.6990    -0.0040     1.1870 ca         1 CZG       0.063000
     31 H1           1.9260     0.0000    -0.9400 ha         1 CZG       0.135000
     32 H2           3.1690     0.0000     1.1840 ha         1 CZG       0.113000
     33 H3          -5.3600    -0.6750    12.0910 ha         1 CZG       0.125000
     34 H4          -5.8030     2.0520    14.5110 ha         1 CZG       0.117500
     35 H5          -7.9880     1.2660    15.3390 ha         1 CZG       0.106000
     36 H6          -6.6670    -2.7820    15.0050 ha         1 CZG       0.106000
     37 H7          -1.6540     1.3980    12.6270 ha         1 CZG       0.125000
     38 H8           2.7220     0.1360     4.0620 hn         1 CZG       0.140700
     39 H9          -1.6160     0.8890     6.0590 h1         1 CZG       0.065700
     40 H10         -1.6160    -0.8800     6.0600 h1         1 CZG       0.065700
     41 H11         -3.4890    -0.1840     7.7930 hn         1 CZG       0.167500
     42 H12         -4.8900    -0.8960     9.6830 ha         1 CZG       0.128000
     43 H13         -8.4190    -1.1480    15.5820 ha         1 CZG       0.105000
     44 H14         -4.4790    -2.0050    14.1800 ha         1 CZG       0.117500
     45 H15         -1.1820     1.1780    10.2180 ha         1 CZG       0.128000
     46 H17         -1.7820    -0.0040     1.1790 ha         1 CZG       0.137000
@<TRIPOS>BOND
     1     1     2 ar  
     2     1    13 1   
     3     1    30 ar  
     4     2     3 ar  
     5     2    31 1   
     6     3     4 ar  
     7     3    32 1   
     8     4    15 1   
     9     4    29 ar  
    10     5    21 1   
    11     5    22 ar  
    12     5    27 ar  
    13     6    22 ar  
    14     6    23 ar  
    15     6    33 1   
    16     7     8 ar  
    17     7    24 1   
    18     7    26 ar  
    19     8     9 ar  
    20     8    34 1   
    21     9    25 ar  
    22     9    35 1   
    23    10    25 ar  
    24    10    26 ar  
    25    10    36 1   
    26    11    23 ar  
    27    11    27 ar  
    28    11    37 1   
    29    12    13 1   
    30    13    14 1   
    31    15    16 1   
    32    15    38 1   
    33    16    17 1   
    34    16    28 2   
    35    17    18 1   
    36    18    19 1   
    37    18    39 1   
    38    18    40 1   
    39    19    20 2   
    40    19    21 1   
    41    21    41 1   
    42    22    42 1   
    43    23    24 1   
    44    25    43 1   
    45    26    44 1   
    46    27    45 1   
    47    28    29 1   
    48    29    30 ar  
    49    30    46 1   
@<TRIPOS>SUBSTRUCTURE
     1 CZG         1 TEMP              0 ****  ****    0 ROOT
