@<TRIPOS>MOLECULE
molecule
   55    59     1     0     0
SMALL
bcc


@<TRIPOS>ATOM
      1 N1           0.0000     0.0000     0.0000 n2         1 CZH      -0.331200
      2 C2           1.4700     0.0000     0.0000 c3         1 CZH       0.242000
      3 C3           1.8390     0.0000     1.4690 c          1 CZH       0.561300
      4 N4           0.6590     0.0020     2.1330 n          1 CZH      -0.127200
      5 C5           0.3970     0.0050     3.4810 cc         1 CZH      -0.122600
      6 C6          -0.8830     0.0050     3.9340 cd         1 CZH       0.380800
      7 N7          -1.9300     0.0030     3.0950 nd         1 CZH      -0.616000
      8 C8          -1.7630     0.0020     1.8020 cc         1 CZH       0.442600
      9 C9          -0.4000     0.0010     1.2480 cc         1 CZH      -0.018600
     10 C10          2.0050    -1.2570    -0.6880 c3         1 CZH       0.001900
     11 C11          1.5850    -1.2550    -2.1350 ca         1 CZH      -0.094300
     12 C12          2.3960    -0.6670    -3.0890 ca         1 CZH      -0.091000
     13 C13          2.0120    -0.6650    -4.4160 ca         1 CZH      -0.155000
     14 C14          0.8130    -1.2520    -4.7910 ca         1 CZH       0.110100
     15 C15          0.0030    -1.8420    -3.8320 ca         1 CZH      -0.155000
     16 C16          0.3930    -1.8460    -2.5070 ca         1 CZH      -0.091000
     17 O17          0.4350    -1.2520    -6.0960 oh         1 CZH      -0.522100
     18 O18          2.9510    -0.0010     1.9490 o          1 CZH      -0.538500
     19 C19         -1.1300     0.0070     5.3970 ca         1 CZH      -0.140500
     20 C20         -2.1610     0.7780     5.9300 ca         1 CZH      -0.092500
     21 C21         -2.3890     0.7770     7.2900 ca         1 CZH      -0.155000
     22 C22         -1.5920     0.0090     8.1280 ca         1 CZH       0.112100
     23 C23         -0.5640    -0.7600     7.6000 ca         1 CZH      -0.155000
     24 C24         -0.3350    -0.7670     6.2400 ca         1 CZH      -0.092500
     25 O25         -1.8180     0.0110     9.4680 oh         1 CZH      -0.522100
     26 C26         -2.9570     0.0020     0.8820 c3         1 CZH      -0.066400
     27 C27         -4.2220     0.0030     1.7000 ca         1 CZH      -0.073300
     28 C28         -4.8020     1.2000     2.0740 ca         1 CZH      -0.112500
     29 C29         -5.9620     1.2010     2.8250 ca         1 CZH      -0.127000
     30 C30         -6.5430     0.0050     3.2020 ca         1 CZH      -0.126000
     31 C31         -5.9640    -1.1920     2.8260 ca         1 CZH      -0.127000
     32 C32         -4.8050    -1.1930     2.0710 ca         1 CZH      -0.112500
     33 O33          1.9710     1.1730    -0.6430 os         1 CZH      -0.169800
     34 O34          1.4100     2.3240     0.0780 oh         1 CZH      -0.423000
     35 H5           1.2170     0.0070     4.1880 h4         1 CZH       0.180000
     36 H101         1.6060    -2.1360    -0.1970 hc         1 CZH       0.072200
     37 H102         3.0870    -1.2690    -0.6260 hc         1 CZH       0.072200
     38 H12          3.3320    -0.2090    -2.7950 ha         1 CZH       0.136000
     39 H13          2.6470    -0.2040    -5.1630 ha         1 CZH       0.140500
     40 H15         -0.9330    -2.3030    -4.1230 ha         1 CZH       0.140500
     41 H16         -0.2400    -2.3060    -1.7580 ha         1 CZH       0.136000
     42 H17          0.8330    -1.9830    -6.5390 ho         1 CZH       0.418000
     43 H20         -2.7830     1.3780     5.2770 ha         1 CZH       0.142000
     44 H21         -3.1900     1.3770     7.7050 ha         1 CZH       0.143500
     45 H23          0.0550    -1.3590     8.2570 ha         1 CZH       0.143500
     46 H24          0.4670    -1.3680     5.8290 ha         1 CZH       0.142000
     47 H25         -1.2710     0.6610     9.8780 ho         1 CZH       0.420000
     48 H261        -2.9310    -0.8830     0.2570 hc         1 CZH       0.077700
     49 H262        -2.9300     0.8860     0.2560 hc         1 CZH       0.077700
     50 H28         -4.3470     2.1380     1.7790 ha         1 CZH       0.128500
     51 H29         -6.4160     2.1400     3.1180 ha         1 CZH       0.128500
     52 H30         -7.4520     0.0060     3.7910 ha         1 CZH       0.128000
     53 H31         -6.4200    -2.1300     3.1190 ha         1 CZH       0.128500
     54 H32         -4.3510    -2.1310     1.7770 ha         1 CZH       0.128500
     55 H34          1.7460     3.1230    -0.2950 ho         1 CZH       0.423000
@<TRIPOS>BOND
     1     1     2 1
     2     1     9 2
     3     2     3 1
     4     2    10 1
     5     2    33 1
     6     3     4 1
     7     3    18 2
     8     4     5 1
     9     4     9 1
    10     5     6 2
    11     5    35 1
    12     6     7 1
    13     6    19 1
    14     7     8 2
    15     8     9 1
    16     8    26 1
    17    10    11 1
    18    10    36 1
    19    10    37 1
    20    11    12 ar
    21    11    16 ar
    22    12    13 ar
    23    12    38 1
    24    13    14 ar
    25    13    39 1
    26    14    15 ar
    27    14    17 1
    28    15    16 ar
    29    15    40 1
    30    16    41 1
    31    17    42 1
    32    19    20 ar
    33    19    24 ar
    34    20    21 ar
    35    20    43 1
    36    21    22 ar
    37    21    44 1
    38    22    23 ar
    39    22    25 1
    40    23    24 ar
    41    23    45 1
    42    24    46 1
    43    25    47 1
    44    26    27 1
    45    26    48 1
    46    26    49 1
    47    27    28 ar
    48    27    32 ar
    49    28    29 ar
    50    28    50 1
    51    29    30 ar
    52    29    51 1
    53    30    31 ar
    54    30    52 1
    55    31    32 ar
    56    31    53 1
    57    32    54 1
    58    33    34 1
    59    34    55 1
@<TRIPOS>SUBSTRUCTURE
     1 CZH         1 TEMP              0 ****  ****    0 ROOT
