@<TRIPOS>MOLECULE
molecule
   56    60     1     0     0
SMALL
bcc


@<TRIPOS>ATOM
      1 I            0.0000     0.0000     0.0000 i          1 CZI      -0.176900
      2 C14          2.0950     0.0000     0.0000 ca         1 CZI       0.057900
      3 C15          2.7870     0.0000     1.1970 ca         1 CZI      -0.100500
      4 C16          4.1700     0.0010     1.1970 ca         1 CZI      -0.107500
      5 C13          2.7870    -0.0000    -1.1970 ca         1 CZI      -0.100500
      6 C12          4.1690     0.0050    -1.1980 ca         1 CZI      -0.107500
      7 C11          4.8600    -0.0010    -0.0010 ca         1 CZI      -0.066300
      8 C10          6.3670    -0.0000    -0.0010 c3         1 CZI      -0.002100
      9 C2           6.8770    -1.4420     0.0000 c3         1 CZI       0.235000
     10 O33          6.4000    -2.1410     1.1520 os         1 CZI      -0.173800
     11 O34          7.0320    -3.4680     1.1350 oh         1 CZI      -0.421000
     12 N1           6.4680    -2.1360    -1.2330 n2         1 CZI      -0.625900
     13 C9           7.5280    -2.4880    -1.8550 c2         1 CZI       0.450900
     14 N4           8.6890    -2.1170    -1.1910 n          1 CZI      -0.319500
     15 C3           8.3940    -1.4710    -0.0500 c          1 CZI       0.675500
     16 O18          9.1710    -1.0110     0.7600 o          1 CZI      -0.563500
     17 C5           9.9590    -2.4150    -1.7110 c2         1 CZI      -0.102400
     18 C8           7.6180    -3.2350    -3.1790 c3         1 CZI       0.246200
     19 C26          7.6750    -2.2420    -4.3420 c3         1 CZI      -0.050100
     20 C27          7.6400    -2.9960    -5.6460 ca         1 CZI      -0.091300
     21 C28          6.4280    -3.2780    -6.2500 ca         1 CZI      -0.121000
     22 C29          6.3960    -3.9690    -7.4470 ca         1 CZI      -0.127500
     23 C30          7.5760    -4.3770    -8.0400 ca         1 CZI      -0.126000
     24 C31          8.7870    -4.0950    -7.4380 ca         1 CZI      -0.127500
     25 C32          8.8200    -3.4000    -6.2440 ca         1 CZI      -0.121000
     26 N7           8.8730    -4.0150    -3.1060 nu         1 CZI      -0.844000
     27 C6          10.0400    -3.3580    -2.6720 ce         1 CZI       0.139800
     28 C19         11.3490    -3.6990    -3.2680 ca         1 CZI      -0.065800
     29 C20         12.2780    -2.6930    -3.5420 ca         1 CZI      -0.101500
     30 C21         13.4980    -3.0160    -4.0970 ca         1 CZI      -0.151000
     31 C24         11.6630    -5.0290    -3.5530 ca         1 CZI      -0.101500
     32 C23         12.8830    -5.3440    -4.1130 ca         1 CZI      -0.151000
     33 C22         13.8030    -4.3400    -4.3840 ca         1 CZI       0.111100
     34 O25         15.0070    -4.6540    -4.9320 oh         1 CZI      -0.522100
     35 H15          2.2460     0.0010     2.1350 ha         1 CZI       0.140500
     36 H16          4.7120    -0.0010     2.1350 ha         1 CZI       0.138500
     37 H13          2.2450     0.0040    -2.1350 ha         1 CZI       0.140500
     38 H12          4.7110     0.0040    -2.1360 ha         1 CZI       0.138500
     39 H101         6.7290     0.5100    -0.8850 hc         1 CZI       0.074700
     40 H102         6.7280     0.5110     0.8840 hc         1 CZI       0.074700
     41 H34          6.6870    -3.9890     1.8410 ho         1 CZI       0.421000
     42 H5          10.8490    -2.1110    -1.1730 h4         1 CZI       0.185000
     43 H8           6.7710    -3.9010    -3.2880 h1         1 CZI       0.098700
     44 H261         6.8240    -1.5740    -4.2880 hc         1 CZI       0.064700
     45 H262         8.5910    -1.6670    -4.2820 hc         1 CZI       0.064700
     46 H28          5.5040    -2.9580    -5.7840 ha         1 CZI       0.134500
     47 H29          5.4470    -4.1900    -7.9190 ha         1 CZI       0.132000
     48 H30          7.5510    -4.9200    -8.9770 ha         1 CZI       0.130000
     49 H31          9.7120    -4.4130    -7.9050 ha         1 CZI       0.132000
     50 H32          9.7690    -3.1790    -5.7720 ha         1 CZI       0.134500
     51 HN7          8.8910    -4.9840    -3.3560 hn         1 CZI       0.454800
     52 H20         12.0410    -1.6600    -3.3190 ha         1 CZI       0.138000
     53 H21         14.2190    -2.2360    -4.3100 ha         1 CZI       0.145000
     54 H24         10.9450    -5.8120    -3.3420 ha         1 CZI       0.138000
     55 H23         13.1260    -6.3760    -4.3360 ha         1 CZI       0.145000
     56 H25         15.6300    -4.8240    -4.2450 ho         1 CZI       0.422000
@<TRIPOS>BOND
     1     1     2 1
     2     2     3 ar
     3     2     5 ar
     4     3     4 ar
     5     3    35 1
     6     4     7 ar
     7     4    36 1
     8     5     6 ar
     9     5    37 1
    10     6     7 ar
    11     6    38 1
    12     7     8 1
    13     8     9 1
    14     8    39 1
    15     8    40 1
    16     9    10 1
    17     9    12 1
    18     9    15 1
    19    10    11 1
    20    11    41 1
    21    12    13 2
    22    13    14 1
    23    13    18 1
    24    14    15 1
    25    14    17 1
    26    15    16 2
    27    17    27 2
    28    17    42 1
    29    18    19 1
    30    18    26 1
    31    18    43 1
    32    19    20 1
    33    19    44 1
    34    19    45 1
    35    20    21 ar
    36    20    25 ar
    37    21    22 ar
    38    21    46 1
    39    22    23 ar
    40    22    47 1
    41    23    24 ar
    42    23    48 1
    43    24    25 ar
    44    24    49 1
    45    25    50 1
    46    26    27 1
    47    26    51 1
    48    27    28 1
    49    28    29 ar
    50    28    31 ar
    51    29    30 ar
    52    29    52 1
    53    30    33 ar
    54    30    53 1
    55    31    32 ar
    56    31    54 1
    57    32    33 ar
    58    32    55 1
    59    33    34 1
    60    34    56 1
@<TRIPOS>SUBSTRUCTURE
     1 CZI         1 TEMP              0 ****  ****    0 ROOT
