@<TRIPOS>MOLECULE
molecule
   81    86     1     0     0
SMALL
bcc


@<TRIPOS>ATOM
      1 C17          0.0000     0.0000     0.0000 ca         1 CZJ      -0.232000
      2 C20         -0.7140     0.0190     3.6730 cc         1 CZJ       0.183900
      3 C22          0.0350     0.0250     4.8340 cd         1 CZJ      -0.090600
      4 C24         -0.3790     1.0450     6.9490 c          1 CZJ       0.688100
      5 C26         -2.4870     0.9100     8.2490 c3         1 CZJ      -0.103067
      6 C28         -2.6790     2.1190    10.4270 c3         1 CZJ      -0.177400
      7 C02         -0.2970    -1.3170    -3.6110 c3         1 CZJ       0.164800
      8 C03         -1.0530    -2.6460    -3.5830 c3         1 CZJ      -0.101100
      9 C04          0.5620    -1.2450    -4.8760 c3         1 CZJ       0.125100
     10 C07          1.3620     0.0610    -4.8680 c3         1 CZJ       0.115100
     11 C12          2.2040     0.1230    -3.5900 c3         1 CZJ       0.110100
     12 C14          1.2820    -0.0010    -2.3740 c3         1 CZJ       0.344900
     13 C16          1.3920     0.0000     0.0000 ca         1 CZJ       0.174100
     14 C18         -0.6910     0.0060     1.1780 ca         1 CZJ      -0.042000
     15 C19          0.0050     0.0120     2.3910 ca         1 CZJ      -0.194800
     16 C25         -0.9610     0.9920     8.3390 c3         1 CZJ      -0.317000
     17 C27         -3.0780     0.8580     9.6580 c3         1 CZJ      -0.306700
     18 C29         -1.1540     2.2010    10.5160 c3         1 CZJ      -0.306700
     19 C30         -0.5630     2.2540     9.1060 c3         1 CZJ      -0.103067
     20 C31         -2.5430    -0.3750    10.3900 c3         1 CZJ      -0.177400
     21 C32         -1.0190    -0.2930    10.4790 c3         1 CZJ      -0.306700
     22 C33         -0.6200     0.9680    11.2480 c3         1 CZJ      -0.177400
     23 C34         -0.4270    -0.2400     9.0700 c3         1 CZJ      -0.103067
     24 C36          1.4410     0.0260     4.7510 c          1 CZJ       0.743800
     25 C39          1.4100     0.0120     2.3990 ca         1 CZJ       0.210100
     26 C40          2.0950     0.0000     1.1930 ca         1 CZJ      -0.117300
     27 C41          3.6030    -0.0020     1.1810 c3         1 CZJ      -0.038800
     28 N10          0.0910     3.3970    -5.5690 nz         1 CZJ      -0.663400
     29 N23         -0.6000     0.0330     6.0880 ns         1 CZJ      -0.473100
     30 O05          1.4620    -2.3550    -4.9070 os         1 CZJ      -0.397600
     31 O08          0.4490     1.1900    -4.9030 os         1 CZJ      -0.395900
     32 O11          2.0040     2.3490    -5.9830 o          1 CZJ      -0.408000
     33 O13          2.9000     1.3700    -3.5360 oh         1 CZJ      -0.612800
     34 O15          2.0660    -0.0010    -1.1790 os         1 CZJ      -0.289900
     35 O21         -2.0670     0.0190     3.7150 oh         1 CZJ      -0.505100
     36 O35          0.2900     1.9980     6.6080 o          1 CZJ      -0.556100
     37 O37          2.0790     0.0180     3.5710 os         1 CZJ      -0.293200
     38 O38          2.0960     0.0310     5.7800 o          1 CZJ      -0.534500
     39 O42          0.5450    -1.2220    -2.4600 os         1 CZJ      -0.400600
     40 H171        -0.5390     0.0000    -0.9400 ha         1 CZJ       0.137000
     41 H262        -2.8650     1.7830     7.7300 hc         1 CZJ       0.136867
     42 H261        -2.7690     0.0160     7.7060 hc         1 CZJ       0.136867
     43 H282        -3.0580     2.9920     9.9090 hc         1 CZJ       0.099700
     44 H281        -3.0980     2.0810    11.4250 hc         1 CZJ       0.099700
     45 H013        -2.1870    -0.4550    -3.0640 hc         1 CZJ       0.055200
     46 H012        -0.8510     0.7020    -3.1270 hc         1 CZJ       0.055200
     47 H011        -1.5630     0.0910    -4.6260 hc         1 CZJ       0.055200
     48 H033        -1.8780    -2.5780    -2.8840 hc         1 CZJ       0.055200
     49 H031        -1.4360    -2.8650    -4.5730 hc         1 CZJ       0.055200
     50 H032        -0.3820    -3.4380    -3.2720 hc         1 CZJ       0.055200
     51 H041        -0.0800    -1.2680    -5.7490 h1         1 CZJ       0.064700
     52 H062         1.8210    -3.8700    -6.3110 h1         1 CZJ       0.047033
     53 H063         2.7050    -2.3190    -6.5960 h1         1 CZJ       0.047033
     54 H061         0.9060    -2.3570    -6.6500 h1         1 CZJ       0.047033
     55 H071         2.0150     0.0900    -5.7320 h1         1 CZJ       0.098700
     56 H121         2.9160    -0.6940    -3.5870 h1         1 CZJ       0.115700
     57 H141         0.5920     0.8340    -2.3590 h2         1 CZJ       0.038700
     58 H181        -1.7730     0.0060     1.1240 ha         1 CZJ       0.145000
     59 H271        -2.3760     0.4850     8.9220 hc         1 CZJ       0.203033
     60 H291        -1.2950     2.3390     9.4510 hc         1 CZJ       0.203033
     61 H302        -0.7220     3.1850     8.5750 hc         1 CZJ       0.136867
     62 H301        -1.5570     1.8460     9.2440 hc         1 CZJ       0.136867
     63 H311        -2.0770     0.5860    10.5690 hc         1 CZJ       0.099700
     64 H312        -3.0460    -0.6130    11.3190 hc         1 CZJ       0.099700
     65 H321        -0.6400    -1.1670    10.9970 hc         1 CZJ       0.203033
     66 H331         0.4600     1.0250    11.3120 hc         1 CZJ       0.099700
     67 H332        -1.0390     0.9300    12.2460 hc         1 CZJ       0.099700
     68 H341        -0.2550    -1.3050     8.9690 hc         1 CZJ       0.136867
     69 H342         0.5920     0.0910     9.2300 hc         1 CZJ       0.136867
     70 H413         3.9600    -0.8730     0.6460 hc         1 CZJ       0.057700
     71 H411         3.9620     0.8950     0.6910 hc         1 CZJ       0.057700
     72 H412         3.9720    -0.0280     2.2000 hc         1 CZJ       0.057700
     73 H101         0.1940     3.9400    -4.7350 hn         1 CZJ       0.492467
     74 H102        -0.7370     2.8390    -5.5040 hn         1 CZJ       0.492467
     75 H231        -1.1900    -0.7310     6.3540 hn         1 CZJ       0.339500
     76 H131         3.8250     1.2190    -3.6390 ho         1 CZJ       0.439000
     77 H211        -2.3890     0.8770     3.4950 ho         1 CZJ       0.437000
     78 C06          1.8030    -2.7910    -6.2250 c3         1 CZJ       0.124700
     79 C09          0.8880     2.3130    -5.5020 c          1 CZJ       0.575100
     80 H103         0.0200     4.0080    -6.3590 hn         1 CZJ       0.492467
     81 C01         -1.2970    -0.1600    -3.6070 c3         1 CZJ      -0.101100
@<TRIPOS>BOND
     1    23    21 1
     2    23    16 1
     3    21    22 1
     4    21    20 1
     5    22    18 1
     6    35     2 1
     7    36     4 2
     8    14     1 ar
     9    14    15 ar
    10    33    11 1
    11     1    13 ar
    12    20    17 1
    13    16     4 1
    14    16    19 1
    15    16     5 1
    16     4    29 1
    17    39    12 1
    18    39     7 1
    19    19    18 1
    20    18     6 1
    21     2    15 1
    22     2     3 2
    23    12    11 1
    24    12    34 1
    25    15    25 ar
    26    11    10 1
    27    13    34 1
    28    13    26 ar
    29     8     7 1
    30    29     3 1
    31     3    24 1
    32     5    17 1
    33     7     9 1
    34     7    81 1
    35    17     6 1
    36    25    26 ar
    37    25    37 1
    38    26    27 1
    39     9    10 1
    40     9    30 1
    41    10    31 1
    42    24    37 1
    43    24    38 2
    44    31    79 1
    45    30    78 1
    46    79    32 2
    47    79    28 1
    48     1    40 1
    49     5    41 1
    50     5    42 1
    51     6    43 1
    52     6    44 1
    53    81    45 1
    54    81    46 1
    55    81    47 1
    56     8    48 1
    57     8    49 1
    58     8    50 1
    59     9    51 1
    60    78    52 1
    61    78    53 1
    62    78    54 1
    63    10    55 1
    64    11    56 1
    65    12    57 1
    66    14    58 1
    67    17    59 1
    68    18    60 1
    69    19    61 1
    70    19    62 1
    71    20    63 1
    72    20    64 1
    73    21    65 1
    74    22    66 1
    75    22    67 1
    76    23    68 1
    77    23    69 1
    78    27    70 1
    79    27    71 1
    80    27    72 1
    81    28    73 1
    82    28    74 1
    83    29    75 1
    84    33    76 1
    85    35    77 1
    86    80    28 1
@<TRIPOS>SUBSTRUCTURE
     1 CZJ         1 TEMP              0 ****  ****    0 ROOT
