@<TRIPOS>MOLECULE
CZJ
   81    89     1     0     0
SMALL
bcc


@<TRIPOS>ATOM
      1 C17          0.0000     0.0000     0.0000 ca         1 CZJ      -0.241000
      2 C20         -0.7140     0.0190     3.6730 c2         1 CZJ       0.170000
      3 C22          0.0350     0.0250     4.8340 c2         1 CZJ      -0.245000
      4 C24         -0.3790     1.0450     6.9490 c2         1 CZJ       0.228000
      5 C26         -2.4870     0.9100     8.2490 DU         1 CZJ      -0.013000
      6 C28         -2.6790     2.1190    10.4270 c3         1 CZJ      -0.145000
      7 C02         -0.2970    -1.3170    -3.6110 c3         1 CZJ       0.093000
      8 C03         -1.0530    -2.6460    -3.5830 c3         1 CZJ      -0.140000
      9 C04          0.5620    -1.2450    -4.8760 c3         1 CZJ       0.034000
     10 C07          1.3620     0.0610    -4.8680 c3         1 CZJ       0.041000
     11 C12          2.2040     0.1230    -3.5900 c3         1 CZJ       0.026000
     12 C14          1.2820    -0.0010    -2.3740 c3         1 CZJ       0.188000
     13 C16          1.3920     0.0000     0.0000 ca         1 CZJ       0.146000
     14 C18         -0.6910     0.0060     1.1780 ca         1 CZJ       0.001000
     15 C19          0.0050     0.0120     2.3910 ca         1 CZJ      -0.204000
     16 C25         -0.9610     0.9920     8.3390 c3         1 CZJ      -0.247000
     17 C27         -3.0780     0.8580     9.6580 c3         1 CZJ      -0.331000
     18 C29         -1.1540     2.2010    10.5160 c3         1 CZJ      -0.381000
     19 C30         -0.5630     2.2540     9.1060 DU         1 CZJ      -0.017000
     20 C31         -2.5430    -0.3750    10.3900 c3         1 CZJ      -0.361000
     21 C32         -1.0190    -0.2930    10.4790 c3         1 CZJ      -0.074000
     22 C33         -0.6200     0.9680    11.2480 c3         1 CZJ      -0.111000
     23 C34         -0.4270    -0.2400     9.0700 c3         1 CZJ      -0.178000
     24 C36          1.4410     0.0260     4.7510 c2         1 CZJ       0.414000
     25 C39          1.4100     0.0120     2.3990 ca         1 CZJ       0.181000
     26 C40          2.0950     0.0000     1.1930 ca         1 CZJ      -0.139000
     27 C41          3.6030    -0.0020     1.1810 c3         1 CZJ      -0.053000
     28 N10          0.0910     3.3970    -5.5690 nz         1 CZJ       0.855000
     29 N23         -0.6000     0.0330     6.0880 ns         1 CZJ       0.134000
     30 O05          1.4620    -2.3550    -4.9070 os         1 CZJ      -0.239000
     31 O08          0.4490     1.1900    -4.9030 os         1 CZJ      -0.207000
     32 O11          2.0040     2.3490    -5.9830 o          1 CZJ      -0.246000
     33 O13          2.9000     1.3700    -3.5360 oh         1 CZJ      -0.327000
     34 O15          2.0660    -0.0010    -1.1790 os         1 CZJ      -0.156000
     35 O21         -2.0670     0.0190     3.7150 oh         1 CZJ      -0.243000
     36 O35          0.2900     1.9980     6.6080 o          1 CZJ      -0.358000
     37 O37          2.0790     0.0180     3.5710 os         1 CZJ      -0.130000
     38 O38          2.0960     0.0310     5.7800 o          1 CZJ      -0.315000
     39 O42          0.5450    -1.2220    -2.4600 os         1 CZJ      -0.240000
     40 H171        -0.5390     0.0000    -0.9400 ha         1 CZJ       0.125000
     41 H262        -2.8650     1.7830     7.7300 ha         1 CZJ       0.114500
     42 H261        -2.7690     0.0160     7.7060 ha         1 CZJ       0.114500
     43 H282        -3.0580     2.9920     9.9090 hc         1 CZJ       0.095500
     44 H281        -3.0980     2.0810    11.4250 hc         1 CZJ       0.095500
     45 H013        -2.1870    -0.4550    -3.0640 hc         1 CZJ       0.062333
     46 H012        -0.8510     0.7020    -3.1270 hc         1 CZJ       0.062333
     47 H011        -1.5630     0.0910    -4.6260 hc         1 CZJ       0.062333
     48 H033        -1.8780    -2.5780    -2.8840 hc         1 CZJ       0.062333
     49 H031        -1.4360    -2.8650    -4.5730 hc         1 CZJ       0.062333
     50 H032        -0.3820    -3.4380    -3.2720 hc         1 CZJ       0.062333
     51 H041        -0.0800    -1.2680    -5.7490 h1         1 CZJ       0.076000
     52 H062         1.8210    -3.8700    -6.3110 h1         1 CZJ       0.041333
     53 H063         2.7050    -2.3190    -6.5960 h1         1 CZJ       0.041333
     54 H061         0.9060    -2.3570    -6.6500 h1         1 CZJ       0.041333
     55 H071         2.0150     0.0900    -5.7320 h1         1 CZJ       0.099000
     56 H121         2.9160    -0.6940    -3.5870 h1         1 CZJ       0.111000
     57 H141         0.5920     0.8340    -2.3590 h2         1 CZJ       0.046000
     58 H181        -1.7730     0.0060     1.1240 ha         1 CZJ       0.110000
     59 H271        -2.3760     0.4850     8.9220 DU         1 CZJ       0.190000
     60 H291        -1.2950     2.3390     9.4510 DU         1 CZJ       0.063000
     61 H302        -0.7220     3.1850     8.5750 ha         1 CZJ       0.122000
     62 H301        -1.5570     1.8460     9.2440 DU         1 CZJ       0.247000
     63 H311        -2.0770     0.5860    10.5690 hc         1 CZJ       0.155500
     64 H312        -3.0460    -0.6130    11.3190 hc         1 CZJ       0.155500
     65 H321        -0.6400    -1.1670    10.9970 hc         1 CZJ       0.097000
     66 H331         0.4600     1.0250    11.3120 hc         1 CZJ       0.083500
     67 H332        -1.0390     0.9300    12.2460 hc         1 CZJ       0.083500
     68 H341        -0.2550    -1.3050     8.9690 hc         1 CZJ       0.111000
     69 H342         0.5920     0.0910     9.2300 hc         1 CZJ       0.111000
     70 H413         3.9600    -0.8730     0.6460 hc         1 CZJ       0.058667
     71 H411         3.9620     0.8950     0.6910 hc         1 CZJ       0.058667
     72 H412         3.9720    -0.0280     2.2000 hc         1 CZJ       0.058667
     73 H101         0.1940     3.9400    -4.7350 hn         1 CZJ       0.046333
     74 H102        -0.7370     2.8390    -5.5040 hn         1 CZJ       0.046333
     75 H231        -1.1900    -0.7310     6.3540 hn         1 CZJ       0.093000
     76 H131         3.8250     1.2190    -3.6390 ho         1 CZJ       0.226000
     77 H211        -2.3890     0.8770     3.4950 ho         1 CZJ       0.219000
     78 C06          1.8030    -2.7910    -6.2250 c3         1 CZJ       0.054000
     79 C09          0.8880     2.3130    -5.5020 c2         1 CZJ       0.156000
     80 H103         0.0200     4.0080    -6.3590 hn         1 CZJ       0.046333
     81 C01         -1.2970    -0.1600    -3.6070 c3         1 CZJ      -0.140000
@<TRIPOS>BOND
     1     1    13 1   
     2     1    14 1   
     3     1    40 1   
     4     2     3 1   
     5     2    15 1   
     6     2    35 1   
     7     3    24 1   
     8     3    29 1   
     9     4    16 1   
    10     4    29 1   
    11     4    36 1   
    12     5    16 1   
    13     5    17 1   
    14     5    41 1   
    15     5    42 1   
    16     5    59 1   
    17     6    17 1   
    18     6    18 1   
    19     6    43 1   
    20     6    44 1   
    21     7     8 1   
    22     7     9 1   
    23     7    39 1   
    24     7    81 1   
    25     8    48 1   
    26     8    49 1   
    27     8    50 1   
    28     9    10 1   
    29     9    30 1   
    30     9    51 1   
    31    10    11 1   
    32    10    31 1   
    33    10    55 1   
    34    11    12 1   
    35    11    33 1   
    36    11    56 1   
    37    12    34 1   
    38    12    39 1   
    39    12    57 1   
    40    13    26 1   
    41    13    34 1   
    42    14    15 1   
    43    14    58 1   
    44    15    25 1   
    45    16    19 1   
    46    16    23 1   
    47    17    20 1   
    48    17    59 1   
    49    18    19 1   
    50    18    22 1   
    51    18    60 1   
    52    19    60 1   
    53    19    61 1   
    54    19    62 1   
    55    20    21 1   
    56    20    63 1   
    57    20    64 1   
    58    21    22 1   
    59    21    23 1   
    60    21    65 1   
    61    22    66 1   
    62    22    67 1   
    63    23    68 1   
    64    23    69 1   
    65    24    37 1   
    66    24    38 1   
    67    25    26 1   
    68    25    37 1   
    69    26    27 1   
    70    27    70 1   
    71    27    71 1   
    72    27    72 1   
    73    28    73 1   
    74    28    74 1   
    75    28    79 1   
    76    28    80 1   
    77    29    75 1   
    78    30    78 1   
    79    31    79 1   
    80    32    79 1   
    81    33    76 1   
    82    35    77 1   
    83    45    81 1   
    84    46    81 1   
    85    47    81 1   
    86    52    78 1   
    87    53    78 1   
    88    54    78 1   
    89    60    62 1   
@<TRIPOS>SUBSTRUCTURE
     1 CZJ         1 TEMP              0 ****  ****    0 ROOT
