@<TRIPOS>MOLECULE
CZK
   60    63     1     0     0
SMALL
bcc


@<TRIPOS>ATOM
      1 C10          0.0000     0.0000     0.0000 ca         1 CZK      -0.112500
      2 C13         -0.7440     0.0060    -1.2840 cc         1 CZK       0.426800
      3 C15         -0.1350     0.9890    -5.3430 c3         1 CZK       0.168100
      4 C17          0.3420     3.3840    -6.9840 c3         1 CZK       0.106300
      5 C20          1.1270     1.9360    -8.7570 c3         1 CZK       0.106300
      6 C21         -2.4200     0.0790    -2.7540 cd         1 CZK      -0.257300
      7 C22         -2.1400     0.1120    -1.4320 cc         1 CZK      -0.317300
      8 C01          1.2830    -0.0140     4.7790 c3         1 CZK       0.241700
      9 C02          1.3850    -0.0100     2.4030 ca         1 CZK       0.117100
     10 C03          2.0830     0.0000     1.1990 ca         1 CZK       0.114100
     11 O02          3.4430     0.0060     1.2010 os         1 CZK      -0.283900
     12 C04          4.0940    -0.1130    -0.0650 c3         1 CZK       0.158100
     13 C05          5.5190    -0.6790     0.1110 c3         1 CZK      -0.043900
     14 C06          6.4120     0.0540    -0.9050 c3         1 CZK      -0.022400
     15 C07          5.4990     1.0410    -1.6620 c3         1 CZK      -0.022400
     16 C08          4.3140     1.2850    -0.6950 c3         1 CZK      -0.043900
     17 C09          1.3930     0.0000     0.0000 ca         1 CZK      -0.156000
     18 C11         -0.6940     0.0020     1.2090 ca         1 CZK      -0.091000
     19 C12         -0.0030    -0.0040     2.4030 ca         1 CZK      -0.182000
     20 N01         -0.2150    -0.0810    -2.4860 nd         1 CZK      -0.626800
     21 N02         -1.2540    -0.0340    -3.4240 na         1 CZK       0.491400
     22 C14         -1.1020    -0.1020    -4.8790 c3         1 CZK      -0.046700
     23 O03          1.1670     0.7280    -4.8140 oh         1 CZK      -0.547800
     24 C16         -0.0710     1.0000    -6.8710 c3         1 CZK       0.115800
     25 N03          0.8570     2.0470    -7.3160 n3         1 CZK      -0.519600
     26 C18          1.3640     4.4410    -7.4090 c3         1 CZK       0.216400
     27 O04          1.6380     4.2980    -8.8060 os         1 CZK      -0.412600
     28 C19          2.1430     3.0090    -9.1650 c3         1 CZK       0.216400
     29 H18         -0.4810     1.9520    -4.9890 h1         1 CZK       0.051700
     30 H23         -0.5900     3.5520    -7.5110 h1         1 CZK       0.017450
     31 H29          1.5320     0.9550    -8.9730 h1         1 CZK       0.017450
     32 H28          0.2060     2.0830    -9.3090 h1         1 CZK       0.017450
     33 H30         -3.4070     0.1390    -3.1980 h4         1 CZK       0.141000
     34 H31         -2.8620     0.1970    -0.6290 ha         1 CZK       0.136000
     35 H01          1.9600    -0.0210     5.6250 h1         1 CZK      -0.003967
     36 H02          0.6550    -0.8960     4.8120 h1         1 CZK      -0.003967
     37 H03          0.6620     0.8730     4.8210 h1         1 CZK      -0.003967
     38 H04          3.5200    -0.7410    -0.7350 h1         1 CZK       0.030700
     39 H05          5.8710    -0.4880     1.1180 hc         1 CZK       0.026950
     40 H06          5.5220    -1.7430    -0.0940 hc         1 CZK       0.026950
     41 H08          7.1940     0.5960    -0.3860 hc         1 CZK       0.014200
     42 H07          6.8440    -0.6580    -1.5980 hc         1 CZK       0.014200
     43 H10          6.0250     1.9680    -1.8570 hc         1 CZK       0.014200
     44 H09          5.1480     0.5960    -2.5860 hc         1 CZK       0.014200
     45 H12          3.4330     1.6010    -1.2410 hc         1 CZK       0.026950
     46 H11          4.5830     2.0090     0.0650 hc         1 CZK       0.026950
     47 H13          1.9360     0.0080    -0.9380 ha         1 CZK       0.148000
     48 H14         -1.7780     0.0060     1.2110 ha         1 CZK       0.108000
     49 H15         -0.5440    -0.0030     3.3410 ha         1 CZK       0.120000
     50 H16         -0.7100    -1.0730    -5.1570 h1         1 CZK       0.032700
     51 H17         -2.0660     0.0470    -5.3500 h1         1 CZK       0.032700
     52 H19          1.4910    -0.0860    -5.1640 ho         1 CZK       0.390000
     53 H20          0.2750     0.0370    -7.2250 h1         1 CZK       0.013200
     54 H21         -1.0580     1.1990    -7.2720 h1         1 CZK       0.013200
     55 H24          2.2800     4.3030    -6.8470 h1         1 CZK       0.014950
     56 H25          0.9620     5.4290    -7.2200 h1         1 CZK       0.014950
     57 H26          2.2990     2.9680   -10.2360 h1         1 CZK       0.014950
     58 H27          3.0800     2.8320    -8.6510 h1         1 CZK       0.014950
     59 O01          2.0630    -0.0150     3.5810 os         1 CZK      -0.291900
     60 H22          0.1770     3.4520    -5.9160 h1         1 CZK       0.017450
@<TRIPOS>BOND
     1     1     2 1   
     2     1    17 ar  
     3     1    18 ar  
     4     2     7 1   
     5     2    20 2   
     6     3    22 1   
     7     3    23 1   
     8     3    24 1   
     9     3    29 1   
    10     4    25 1   
    11     4    26 1   
    12     4    30 1   
    13     4    60 1   
    14     5    25 1   
    15     5    28 1   
    16     5    31 1   
    17     5    32 1   
    18     6     7 2   
    19     6    21 1   
    20     6    33 1   
    21     7    34 1   
    22     8    35 1   
    23     8    36 1   
    24     8    37 1   
    25     8    59 1   
    26     9    10 ar  
    27     9    19 ar  
    28     9    59 1   
    29    10    11 1   
    30    10    17 ar  
    31    11    12 1   
    32    12    13 1   
    33    12    16 1   
    34    12    38 1   
    35    13    14 1   
    36    13    39 1   
    37    13    40 1   
    38    14    15 1   
    39    14    41 1   
    40    14    42 1   
    41    15    16 1   
    42    15    43 1   
    43    15    44 1   
    44    16    45 1   
    45    16    46 1   
    46    17    47 1   
    47    18    19 ar  
    48    18    48 1   
    49    19    49 1   
    50    20    21 1   
    51    21    22 1   
    52    22    50 1   
    53    22    51 1   
    54    23    52 1   
    55    24    25 1   
    56    24    53 1   
    57    24    54 1   
    58    26    27 1   
    59    26    55 1   
    60    26    56 1   
    61    27    28 1   
    62    28    57 1   
    63    28    58 1   
@<TRIPOS>SUBSTRUCTURE
     1 CZK         1 TEMP              0 ****  ****    0 ROOT
