@<TRIPOS>MOLECULE
CZM
   46    50     1     0     0
SMALL
bcc


@<TRIPOS>ATOM
      1 OA           0.0000     0.0000     0.0000 oh         1 CZM      -0.232000
      2 CA2          1.3580     0.0000     0.0000 c2         1 CZM       0.109000
      3 CA3          2.0530     0.0000     1.1980 c2         1 CZM      -0.154000
      4 CA4          3.4350    -0.0000     1.1970 c2         1 CZM      -0.043000
      5 CA5          4.1360     0.0060     0.0020 c2         1 CZM      -0.142500
      6 CA6          3.4610     0.0120    -1.1990 c2         1 CZM      -0.008500
      7 CA1          2.0630     0.0120    -1.2140 c3         1 CZM      -0.212500
      8 CA           1.3360     0.0170    -2.4910 c2         1 CZM      -0.345000
      9 NA           0.0310     0.0170    -2.5000 n2         1 CZM       0.090500
     10 CC1         -0.6440    -0.0850    -3.6810 ca         1 CZM      -0.046000
     11 CC6         -0.2870    -1.0620    -4.6130 ca         1 CZM      -0.089500
     12 CC5         -0.9730    -1.1610    -5.8050 ca         1 CZM      -0.104500
     13 CC4         -2.0180    -0.2960    -6.0890 ca         1 CZM      -0.104500
     14 CC3         -2.3880     0.6770    -5.1830 ca         1 CZM      -0.089500
     15 CC2         -1.7110     0.7910    -3.9680 ca         1 CZM      -0.046000
     16 NB          -2.0730     1.7520    -3.0680 n2         1 CZM       0.090500
     17 CB          -2.2540     2.9810    -3.4650 c2         1 CZM      -0.345000
     18 CB1         -2.7470     3.9940    -2.5190 c3         1 CZM      -0.212500
     19 CB6         -2.9430     5.3130    -2.9390 c2         1 CZM      -0.008500
     20 CB5         -3.4060     6.2560    -2.0470 c2         1 CZM      -0.142500
     21 CB4         -3.6790     5.9030    -0.7350 c2         1 CZM      -0.043000
     22 CB3         -3.4890     4.6030    -0.3070 c2         1 CZM      -0.154000
     23 CB2         -3.0300     3.6400    -1.1900 c2         1 CZM       0.109000
     24 OB          -2.8430     2.3630    -0.7700 oh         1 CZM      -0.232000
     25 CB7         -3.7890     4.2310     1.1230 c3         1 CZM      -0.056000
     26 CA7          1.3020    -0.0060     2.5040 c3         1 CZM      -0.056000
     27 HOA         -0.3140    -0.8500     0.2590 ho         1 CZM       0.214000
     28 HA4          3.9740    -0.0030     2.1370 ha         1 CZM       0.106000
     29 HA5          5.2190     0.0060     0.0120 ha         1 CZM       0.110000
     30 HA6          4.0140     0.0190    -2.1310 ha         1 CZM       0.119500
     31 HA           1.5120     0.9250    -1.9270 DU         1 CZM       0.311000
     32 HC6          0.5290    -1.7420    -4.3990 ha         1 CZM       0.121500
     33 HC5         -0.6920    -1.9200    -6.5250 ha         1 CZM       0.102000
     34 HC4         -2.5470    -0.3840    -7.0310 ha         1 CZM       0.102000
     35 HC3         -3.2070     1.3470    -5.4130 ha         1 CZM       0.121500
     36 HB          -1.5960     3.4920    -2.7720 DU         1 CZM       0.311000
     37 HB6         -2.7310     5.5940    -3.9640 ha         1 CZM       0.119500
     38 HB5         -3.5580     7.2780    -2.3730 ha         1 CZM       0.110000
     39 HB4         -4.0400     6.6520    -0.0410 ha         1 CZM       0.106000
     40 HOB         -3.6800     1.9460    -0.6490 ho         1 CZM       0.214000
     41 HB71        -3.8930     5.1320     1.7160 hc         1 CZM       0.049667
     42 HB72        -4.7110     3.6640     1.1620 hc         1 CZM       0.049667
     43 HB73        -2.9790     3.6310     1.5170 hc         1 CZM       0.049667
     44 HA71         0.8850    -0.9910     2.6760 hc         1 CZM       0.049667
     45 HA72         1.9800     0.2450     3.3110 hc         1 CZM       0.049667
     46 HA73         0.5020     0.7220     2.4640 hc         1 CZM       0.049667
@<TRIPOS>BOND
     1     1     2 1   
     2     1    27 1   
     3     2     3 1   
     4     2     7 1   
     5     3     4 1   
     6     3    26 1   
     7     4     5 1   
     8     4    28 1   
     9     5     6 1   
    10     5    29 1   
    11     6     7 1   
    12     6    30 1   
    13     7     8 1   
    14     7    31 1   
    15     8     9 1   
    16     8    31 1   
    17     9    10 1   
    18    10    11 1   
    19    10    15 1   
    20    11    12 1   
    21    11    32 1   
    22    12    13 1   
    23    12    33 1   
    24    13    14 1   
    25    13    34 1   
    26    14    15 1   
    27    14    35 1   
    28    15    16 1   
    29    16    17 1   
    30    17    18 1   
    31    17    36 1   
    32    18    19 1   
    33    18    23 1   
    34    18    36 1   
    35    19    20 1   
    36    19    37 1   
    37    20    21 1   
    38    20    38 1   
    39    21    22 1   
    40    21    39 1   
    41    22    23 1   
    42    22    25 1   
    43    23    24 1   
    44    24    40 1   
    45    25    41 1   
    46    25    42 1   
    47    25    43 1   
    48    26    44 1   
    49    26    45 1   
    50    26    46 1   
@<TRIPOS>SUBSTRUCTURE
     1 CZM         1 TEMP              0 ****  ****    0 ROOT
