@<TRIPOS>MOLECULE
molecule
   46    48     1     0     0
SMALL
bcc


@<TRIPOS>ATOM
      1 OA           0.0000     0.0000     0.0000 oh         1 CZM      -0.474600
      2 CA2          1.3580     0.0000     0.0000 ca         1 CZM       0.157100
      3 CA3          2.0530     0.0000     1.1980 ca         1 CZM      -0.132300
      4 CA4          3.4350    -0.0000     1.1970 ca         1 CZM      -0.099000
      5 CA5          4.1360     0.0060     0.0020 ca         1 CZM      -0.148000
      6 CA6          3.4610     0.0120    -1.1990 ca         1 CZM      -0.098500
      7 CA1          2.0630     0.0120    -1.2140 ca         1 CZM      -0.167900
      8 CA           1.3360     0.0170    -2.4910 ce         1 CZM       0.483300
      9 NA           0.0310     0.0170    -2.5000 nf         1 CZM      -0.529100
     10 CC1         -0.6440    -0.0850    -3.6810 ca         1 CZM       0.147400
     11 CC6         -0.2870    -1.0620    -4.6130 ca         1 CZM      -0.158000
     12 CC5         -0.9730    -1.1610    -5.8050 ca         1 CZM      -0.127000
     13 CC4         -2.0180    -0.2960    -6.0890 ca         1 CZM      -0.127000
     14 CC3         -2.3880     0.6770    -5.1830 ca         1 CZM      -0.158000
     15 CC2         -1.7110     0.7910    -3.9680 ca         1 CZM       0.147400
     16 NB          -2.0730     1.7520    -3.0680 ne         1 CZM      -0.529100
     17 CB          -2.2540     2.9810    -3.4650 cf         1 CZM       0.483300
     18 CB1         -2.7470     3.9940    -2.5190 ca         1 CZM      -0.167900
     19 CB6         -2.9430     5.3130    -2.9390 ca         1 CZM      -0.098500
     20 CB5         -3.4060     6.2560    -2.0470 ca         1 CZM      -0.148000
     21 CB4         -3.6790     5.9030    -0.7350 ca         1 CZM      -0.099000
     22 CB3         -3.4890     4.6030    -0.3070 ca         1 CZM      -0.132300
     23 CB2         -3.0300     3.6400    -1.1900 ca         1 CZM       0.157100
     24 OB          -2.8430     2.3630    -0.7700 oh         1 CZM      -0.474600
     25 CB7         -3.7890     4.2310     1.1230 c3         1 CZM      -0.044800
     26 CA7          1.3020    -0.0060     2.5040 c3         1 CZM      -0.044800
     27 HOA         -0.3140    -0.8550     0.2440 ho         1 CZM       0.418000
     28 HA4          3.9740    -0.0030     2.1370 ha         1 CZM       0.132000
     29 HA5          5.2190     0.0060     0.0120 ha         1 CZM       0.131500
     30 HA6          4.0140     0.0190    -2.1310 ha         1 CZM       0.132000
     31 HA           1.8820    -0.0640    -3.4230 h4         1 CZM      -0.023200
     32 HC6          0.5290    -1.7420    -4.3990 ha         1 CZM       0.134500
     33 HC5         -0.6920    -1.9200    -6.5250 ha         1 CZM       0.129000
     34 HC4         -2.5470    -0.3840    -7.0310 ha         1 CZM       0.129000
     35 HC3         -3.2070     1.3470    -5.4130 ha         1 CZM       0.134500
     36 HB          -2.1170     3.2380    -4.5080 h4         1 CZM      -0.023200
     37 HB6         -2.7310     5.5940    -3.9640 ha         1 CZM       0.132000
     38 HB5         -3.5580     7.2780    -2.3730 ha         1 CZM       0.131500
     39 HB4         -4.0400     6.6520    -0.0410 ha         1 CZM       0.132000
     40 HOB         -3.6790     1.9420    -0.6630 ho         1 CZM       0.418000
     41 HB71        -4.6880     3.6270     1.1570 hc         1 CZM       0.046033
     42 HB72        -2.9590     3.6680     1.5310 hc         1 CZM       0.046033
     43 HB73        -3.9370     5.1320     1.7070 hc         1 CZM       0.046033
     44 HA71         1.9890     0.1990     3.3160 hc         1 CZM       0.046033
     45 HA72         0.5320     0.7540     2.4810 hc         1 CZM       0.046033
     46 HA73         0.8470    -0.9780     2.6540 hc         1 CZM       0.046033
@<TRIPOS>BOND
     1     1     2 1
     2     1    27 1
     3     2     3 ar
     4     2     7 ar
     5     3     4 ar
     6     3    26 1
     7     4     5 ar
     8     4    28 1
     9     5     6 ar
    10     5    29 1
    11     6     7 ar
    12     6    30 1
    13     7     8 1
    14     8     9 2
    15     8    31 1
    16     9    10 1
    17    10    11 ar
    18    10    15 ar
    19    11    12 ar
    20    11    32 1
    21    12    13 ar
    22    12    33 1
    23    13    14 ar
    24    13    34 1
    25    14    15 ar
    26    14    35 1
    27    15    16 1
    28    16    17 2
    29    17    18 1
    30    17    36 1
    31    18    19 ar
    32    18    23 ar
    33    19    20 ar
    34    19    37 1
    35    20    21 ar
    36    20    38 1
    37    21    22 ar
    38    21    39 1
    39    22    23 ar
    40    22    25 1
    41    23    24 1
    42    24    40 1
    43    25    41 1
    44    25    42 1
    45    25    43 1
    46    26    44 1
    47    26    45 1
    48    26    46 1
@<TRIPOS>SUBSTRUCTURE
     1 CZM         1 TEMP              0 ****  ****    0 ROOT
