@<TRIPOS>MOLECULE
CZN
   62    67     1     0     0
SMALL
bcc


@<TRIPOS>ATOM
      1 O21          0.0000     0.0000     0.0000 o          1 CZN      -0.603500
      2 C3           1.2130     0.0000     0.0000 c          1 CZN       0.575500
      3 N4           2.0310     0.0000     1.0660 n          1 CZN       0.106500
      4 C5           1.6780     0.0000     2.4250 c2         1 CZN      -0.230400
      5 C9           3.3580     0.0020     0.6620 c2         1 CZN       0.281900
      6 C8           4.4680     0.0030     1.7040 c3         1 CZN       0.150200
      7 N7           3.9070     0.7150     2.8730 nu         1 CZN      -0.454000
      8 C6           2.6240     0.3500     3.3210 ce         1 CZN       0.036800
      9 C22          2.3130     0.3510     4.7660 ca         1 CZN      -0.081800
     10 C23          1.1420     0.9540     5.2310 ca         1 CZN      -0.063500
     11 C24          0.8570     0.9520     6.5790 ca         1 CZN      -0.139500
     12 C25          1.7320     0.3510     7.4760 ca         1 CZN       0.134100
     13 C26          2.8960    -0.2490     7.0180 ca         1 CZN      -0.139500
     14 C27          3.1870    -0.2570     5.6700 ca         1 CZN      -0.063500
     15 O28          1.4460     0.3510     8.8040 oh         1 CZN      -0.500100
     16 C29          4.8400    -1.4330     2.0820 c3         1 CZN       0.017900
     17 C30          5.4400    -2.1280     0.8870 ca         1 CZN      -0.099300
     18 C31          6.7840    -1.9750     0.6010 ca         1 CZN      -0.086500
     19 C32          7.3340    -2.6110    -0.4960 ca         1 CZN      -0.092500
     20 C33          6.5410    -3.4030    -1.3050 ca         1 CZN      -0.096000
     21 C34          5.1980    -3.5570    -1.0180 ca         1 CZN      -0.092500
     22 C35          4.6480    -2.9230     0.0800 ca         1 CZN      -0.086500
     23 N1           3.4880     0.0030    -0.6110 n2         1 CZN      -0.555900
     24 C2           2.1400     0.0000    -1.2020 c3         1 CZN       0.226000
     25 O36          1.9390    -1.1740    -1.9900 os         1 CZN      -0.157800
     26 O37          2.0470    -2.3200    -1.0790 oh         1 CZN      -0.421000
     27 C10          1.9220     1.2570    -2.0470 c3         1 CZN       0.058900
     28 C11          2.8870     1.2560    -3.2050 ca         1 CZN      -0.093300
     29 C12          4.1060     1.8440    -3.0610 ca         1 CZN      -0.054000
     30 C13          5.0100     1.8410    -4.1370 ca         1 CZN      -0.035000
     31 C14          6.2800     2.4320    -4.0240 ca         1 CZN      -0.084000
     32 C18          4.6320     1.2350    -5.3610 ca         1 CZN      -0.031000
     33 C19          3.3620     0.6440    -5.4730 ca         1 CZN      -0.091000
     34 C20          2.5140     0.6610    -4.4090 ca         1 CZN      -0.083000
     35 C17          5.5350     1.2370    -6.4380 ca         1 CZN      -0.089000
     36 C16          6.7560     1.8190    -6.2920 ca         1 CZN      -0.101000
     37 C15          7.1280     2.4150    -5.0890 ca         1 CZN      -0.105000
     38 H5           0.7880    -0.5230     2.7540 h4         1 CZN       0.152000
     39 H8           5.3330     0.5330     1.3250 h1         1 CZN       0.058700
     40 HN7          4.4270     1.4360     3.3330 hn         1 CZN       0.305800
     41 H23          0.4600     1.4230     4.5330 ha         1 CZN       0.112000
     42 H24         -0.0510     1.4200     6.9400 ha         1 CZN       0.116500
     43 H26          3.5740    -0.7180     7.7200 ha         1 CZN       0.116500
     44 H27          4.0970    -0.7260     5.3140 ha         1 CZN       0.112000
     45 H28          0.9050    -0.3930     9.0090 ho         1 CZN       0.405000
     46 H291         5.5600    -1.4180     2.8900 hc         1 CZN       0.027700
     47 H292         3.9510    -1.9640     2.3990 hc         1 CZN       0.027700
     48 H31          7.4050    -1.3540     1.2350 ha         1 CZN       0.104500
     49 H32          8.3870    -2.4910    -0.7200 ha         1 CZN       0.101000
     50 H33          6.9720    -3.9010    -2.1650 ha         1 CZN       0.101000
     51 H34          4.5770    -4.1790    -1.6510 ha         1 CZN       0.101000
     52 H35          3.5960    -3.0440     0.3050 ha         1 CZN       0.104500
     53 H37          1.5110    -3.0270    -1.3990 ho         1 CZN       0.405000
     54 H101         2.0900     2.1360    -1.4370 hc         1 CZN       0.035700
     55 H102         0.9060     1.2670    -2.4240 hc         1 CZN       0.035700
     56 H12          4.3330     2.4090    -2.1650 ha         1 CZN       0.108000
     57 H14          6.5820     2.8990    -3.0950 ha         1 CZN       0.104000
     58 H19          3.0590     0.1770    -6.4030 ha         1 CZN       0.105000
     59 H20          1.5340     0.2090    -4.5000 ha         1 CZN       0.106000
     60 H17          5.2590     0.7780    -7.3800 ha         1 CZN       0.104000
     61 H16          7.4500     1.8200    -7.1240 ha         1 CZN       0.099000
     62 H15          8.1060     2.8720    -4.9990 ha         1 CZN       0.099000
@<TRIPOS>BOND
     1     1     2 2   
     2     2     3 1   
     3     2    24 1   
     4     3     4 1   
     5     3     5 1   
     6     4     8 2   
     7     4    38 1   
     8     5     6 1   
     9     5    23 2   
    10     6     7 1   
    11     6    16 1   
    12     6    39 1   
    13     7     8 1   
    14     7    40 1   
    15     8     9 1   
    16     9    10 ar  
    17     9    14 ar  
    18    10    11 ar  
    19    10    41 1   
    20    11    12 ar  
    21    11    42 1   
    22    12    13 ar  
    23    12    15 1   
    24    13    14 ar  
    25    13    43 1   
    26    14    44 1   
    27    15    45 1   
    28    16    17 1   
    29    16    46 1   
    30    16    47 1   
    31    17    18 ar  
    32    17    22 ar  
    33    18    19 ar  
    34    18    48 1   
    35    19    20 ar  
    36    19    49 1   
    37    20    21 ar  
    38    20    50 1   
    39    21    22 ar  
    40    21    51 1   
    41    22    52 1   
    42    23    24 1   
    43    24    25 1   
    44    24    27 1   
    45    25    26 1   
    46    26    53 1   
    47    27    28 1   
    48    27    54 1   
    49    27    55 1   
    50    28    29 ar  
    51    28    34 ar  
    52    29    30 ar  
    53    29    56 1   
    54    30    31 ar  
    55    30    32 ar  
    56    31    37 ar  
    57    31    57 1   
    58    32    33 ar  
    59    32    35 ar  
    60    33    34 ar  
    61    33    58 1   
    62    34    59 1   
    63    35    36 ar  
    64    35    60 1   
    65    36    37 ar  
    66    36    61 1   
    67    37    62 1   
@<TRIPOS>SUBSTRUCTURE
     1 CZN         1 TEMP              0 ****  ****    0 ROOT
