@<TRIPOS>MOLECULE
molecule
   60    64     1     0     0
SMALL
bcc


@<TRIPOS>ATOM
      1 O25          0.0000     0.0000     0.0000 oh         1 CZP      -0.520100
      2 C22          1.3610     0.0000     0.0000 ca         1 CZP       0.116100
      3 C23          2.0580     0.0000     1.2080 ca         1 CZP      -0.157500
      4 C24          3.4530     0.0010     1.2080 ca         1 CZP      -0.091000
      5 C21          2.0590     0.0010    -1.2080 ca         1 CZP      -0.157500
      6 C20          3.4540     0.0020    -1.2080 ca         1 CZP      -0.091000
      7 C19          4.1550     0.0010    -0.0000 ca         1 CZP      -0.077800
      8 C6           5.6300     0.0000     0.0010 ce         1 CZP       0.149800
      9 N7           6.2820     1.2180    -0.0050 nu         1 CZP      -0.822000
     10 C8           7.7280     1.3730    -0.0850 c3         1 CZP       0.237200
     11 C26          8.0860     2.0690    -1.3920 c3         1 CZP      -0.091400
     12 C27          7.3870     3.4110    -1.5260 c3         1 CZP      -0.076700
     13 C28          7.7660     4.3970    -0.4270 c3         1 CZP      -0.080900
     14 C29          7.3500     5.7550    -0.9870 c3         1 CZP      -0.083900
     15 C30          7.3460     5.6030    -2.5090 c3         1 CZP      -0.083900
     16 C31          7.7780     4.1680    -2.7920 c3         1 CZP      -0.080900
     17 C9           8.4190     0.0270    -0.0060 c2         1 CZP       0.452900
     18 N4           7.6900    -1.1100     0.0090 n          1 CZP      -0.284500
     19 C5           6.3230    -1.1510     0.0000 c2         1 CZP      -0.145400
     20 N1           9.7080    -0.1100     0.0400 n2         1 CZP      -0.615900
     21 C2           9.9380    -1.5780     0.0790 c3         1 CZP       0.230000
     22 C3           8.5420    -2.1780     0.0650 c          1 CZP       0.663500
     23 O18          8.2820    -3.3700     0.1190 o          1 CZP      -0.554500
     24 O32         10.6120    -2.0870     1.2190 os         1 CZP      -0.168800
     25 C10         10.7080    -1.9880    -1.1680 c3         1 CZP      -0.006100
     26 C11         12.0980    -1.4090    -1.1840 ca         1 CZP      -0.089300
     27 C12         12.3140    -0.1690    -1.7690 ca         1 CZP      -0.093000
     28 C13         13.6020     0.3670    -1.7840 ca         1 CZP      -0.156000
     29 C14         14.6600    -0.3420    -1.2140 ca         1 CZP       0.105100
     30 O17         15.9160     0.1810    -1.2310 oh         1 CZP      -0.523100
     31 C15         14.4300    -1.5870    -0.6290 ca         1 CZP      -0.156000
     32 C16         13.1420    -2.1230    -0.6130 ca         1 CZP      -0.093000
     33 O1           9.8150    -1.6600     2.3570 oh         1 CZP      -0.424000
     34 H25         -0.3140     0.8890    -0.0070 ho         1 CZP       0.421000
     35 H23          1.5160    -0.0000     2.1460 ha         1 CZP       0.145500
     36 H24          3.9940     0.0010     2.1470 ha         1 CZP       0.143000
     37 H21          1.5170     0.0010    -2.1460 ha         1 CZP       0.145500
     38 H20          3.9940     0.0020    -2.1470 ha         1 CZP       0.143000
     39 HN7          5.7250     2.0470     0.0490 hn         1 CZP       0.443800
     40 H8           8.0600     1.9850     0.7450 h1         1 CZP       0.079700
     41 H261         9.1570     2.2240    -1.4280 hc         1 CZP       0.060700
     42 H262         7.7930     1.4350    -2.2200 hc         1 CZP       0.060700
     43 H27          6.3140     3.2630    -1.5170 hc         1 CZP       0.048700
     44 H281         8.8340     4.3730    -0.2480 hc         1 CZP       0.046450
     45 H282         7.2170     4.1800     0.4820 hc         1 CZP       0.046450
     46 H291         6.3580     6.0130    -0.6370 hc         1 CZP       0.043950
     47 H292         8.0650     6.5130    -0.6920 hc         1 CZP       0.043950
     48 H301         6.3490     5.7740    -2.8960 hc         1 CZP       0.043950
     49 H302         8.0490     6.2970    -2.9530 hc         1 CZP       0.043950
     50 H311         8.8480     4.1190    -2.9480 hc         1 CZP       0.046450
     51 H312         7.2440     3.7750    -3.6490 hc         1 CZP       0.046450
     52 H5           5.8090    -2.0930     0.1510 h4         1 CZP       0.184000
     53 H101        10.1710    -1.6420    -2.0430 hc         1 CZP       0.070200
     54 H102        10.7760    -3.0690    -1.2000 hc         1 CZP       0.070200
     55 H12         11.4900     0.3780    -2.2110 ha         1 CZP       0.138500
     56 H13         13.7800     1.3340    -2.2380 ha         1 CZP       0.138500
     57 H17         16.3660    -0.1060    -2.0080 ho         1 CZP       0.417000
     58 H15         15.2510    -2.1370    -0.1860 ha         1 CZP       0.138500
     59 H16         12.9590    -3.0900    -0.1590 ha         1 CZP       0.138500
     60 HO1         10.2550    -1.8990     3.1560 ho         1 CZP       0.421000
@<TRIPOS>BOND
     1     1     2 1
     2     1    34 1
     3     2     3 ar
     4     2     5 ar
     5     3     4 ar
     6     3    35 1
     7     4     7 ar
     8     4    36 1
     9     5     6 ar
    10     5    37 1
    11     6     7 ar
    12     6    38 1
    13     7     8 1
    14     8     9 1
    15     8    19 2
    16     9    10 1
    17     9    39 1
    18    10    11 1
    19    10    17 1
    20    10    40 1
    21    11    12 1
    22    11    41 1
    23    11    42 1
    24    12    13 1
    25    12    16 1
    26    12    43 1
    27    13    14 1
    28    13    44 1
    29    13    45 1
    30    14    15 1
    31    14    46 1
    32    14    47 1
    33    15    16 1
    34    15    48 1
    35    15    49 1
    36    16    50 1
    37    16    51 1
    38    17    18 1
    39    17    20 2
    40    18    19 1
    41    18    22 1
    42    19    52 1
    43    20    21 1
    44    21    22 1
    45    21    24 1
    46    21    25 1
    47    22    23 2
    48    24    33 1
    49    25    26 1
    50    25    53 1
    51    25    54 1
    52    26    27 ar
    53    26    32 ar
    54    27    28 ar
    55    27    55 1
    56    28    29 ar
    57    28    56 1
    58    29    30 1
    59    29    31 ar
    60    30    57 1
    61    31    32 ar
    62    31    58 1
    63    32    59 1
    64    33    60 1
@<TRIPOS>SUBSTRUCTURE
     1 CZP         1 TEMP              0 ****  ****    0 ROOT
