@<TRIPOS>MOLECULE
molecule
   58    60     1     0     0
SMALL
bcc


@<TRIPOS>ATOM
      1 C10          0.0000     0.0000     0.0000 c3         1 CZQ       0.075000
      2 C13          8.9330     1.2290    -9.5180 c3         1 CZQ      -0.083400
      3 C15         10.2080    -0.6820    -8.6980 c3         1 CZQ      -0.093400
      4 C20          1.9430     2.4780     1.5580 c3         1 CZQ      -0.108600
      5 C21         -2.0020     1.0240     1.0980 c3         1 CZQ      -0.108600
      6 C01          2.1650     0.0020    -1.1550 c          1 CZQ       0.661100
      7 N01          1.4710     0.0000     0.0000 n          1 CZQ      -0.496800
      8 O01          4.1710     0.0040    -2.4680 os         1 CZQ      -0.175300
      9 C02          3.6720     0.0030    -1.1290 c3         1 CZQ       0.079400
     10 N02          5.5850     0.0050    -2.5550 n2         1 CZQ      -0.453200
     11 O02         10.2490     0.0120    -6.3500 os         1 CZQ      -0.308900
     12 C03          2.1630     0.0000     1.3000 c3         1 CZQ       0.075000
     13 O03         11.7600     0.0100    -4.0510 os         1 CZQ      -0.328900
     14 C04          6.1610     0.0070    -3.7130 ce         1 CZQ       0.445800
     15 O04          0.1500     0.9880     2.2000 os         1 CZQ      -0.415600
     16 C05          1.5730     1.1210     2.1610 c3         1 CZQ       0.125100
     17 O05          1.5770     0.0040    -2.2160 o          1 CZQ      -0.584100
     18 C06          7.6340     0.0070    -3.8040 ca         1 CZQ      -0.125900
     19 C07          8.2580     0.0090    -5.0550 ca         1 CZQ      -0.174000
     20 C08         -0.4840     1.1220     0.9260 c3         1 CZQ       0.125100
     21 C09          9.6380     0.0110    -5.1350 ca         1 CZQ       0.129100
     22 C11          9.4080    -0.1120    -7.4980 c3         1 CZQ       0.133100
     23 C12          8.9420     1.2770    -7.9800 c3         1 CZQ      -0.093400
     24 C14          9.3930    -0.1890    -9.9180 c3         1 CZQ      -0.083400
     25 C16         10.4030     0.0100    -3.9700 ca         1 CZQ       0.107100
     26 C18          9.7830     0.0070    -2.7290 ca         1 CZQ      -0.175000
     27 C19          8.4070     0.0130    -2.6420 ca         1 CZQ      -0.093000
     28 F01         12.1490     1.1500    -2.0800 f          1 CZQ      -0.242800
     29 F02         12.1500    -1.1340    -2.0830 f          1 CZQ      -0.242800
     30 H22         -0.3630    -0.9540     0.3640 h1         1 CZQ       0.064950
     31 H21         -0.3630     0.1760    -1.0050 h1         1 CZQ       0.064950
     32 H08          9.6200     1.9660    -9.9160 hc         1 CZQ       0.047450
     33 H15         11.2110    -0.2730    -8.7170 hc         1 CZQ       0.057200
     34 H16         10.2280    -1.7650    -8.6640 hc         1 CZQ       0.057200
     35 H17         13.5460     0.0090    -3.0230 h3         1 CZQ       0.123700
     36 H27          2.9650     2.7230     1.8190 hc         1 CZQ       0.048033
     37 H28          1.2780     3.2390     1.9470 hc         1 CZQ       0.048033
     38 H26          1.8470     2.4320     0.4800 hc         1 CZQ       0.048033
     39 H25         -2.4610     1.9570     0.7930 hc         1 CZQ       0.048033
     40 H23         -2.2350     0.8300     2.1380 hc         1 CZQ       0.048033
     41 H24         -2.3830     0.2160     0.4850 hc         1 CZQ       0.048033
     42 H01          4.0240     0.8860    -0.6110 h1         1 CZQ       0.053700
     43 H02          4.0240    -0.8830    -0.6130 h1         1 CZQ       0.053700
     44 H10          2.0120    -0.9530     1.7920 h1         1 CZQ       0.064950
     45 H12          3.2210     0.1760     1.1490 h1         1 CZQ       0.064950
     46 H03          5.5630     0.0080    -4.6160 h4         1 CZQ       0.005800
     47 H14          1.9690     1.0480     3.1670 h1         1 CZQ       0.065700
     48 H04          7.6630     0.0810    -5.9570 ha         1 CZQ       0.150000
     49 H19         -0.2260     2.0810     0.4940 h1         1 CZQ       0.065700
     50 H05          8.5530    -0.7420    -7.2830 h1         1 CZQ       0.053700
     51 H07          9.6340     2.0380    -7.6390 hc         1 CZQ       0.057200
     52 H06          7.9450     1.4820    -7.6100 hc         1 CZQ       0.057200
     53 H13         10.0210    -0.1470   -10.8000 hc         1 CZQ       0.047450
     54 H11          8.5360    -0.8310   -10.0840 hc         1 CZQ       0.047450
     55 H18         10.3810     0.0110    -1.8250 ha         1 CZQ       0.160000
     56 H20          7.9260     0.0110    -1.6720 ha         1 CZQ       0.155000
     57 H09          7.9300     1.4100    -9.8880 hc         1 CZQ       0.047450
     58 C17         12.4820     0.0080    -2.8180 c3         1 CZQ       0.577700
@<TRIPOS>BOND
     1    29    58 1
     2    28    58 1
     3    58    13 1
     4    26    27 ar
     5    26    25 ar
     6    27    18 ar
     7    13    25 1
     8    25    21 ar
     9    18    14 1
    10    18    19 ar
    11    14    10 2
    12    21    19 ar
    13    21    11 1
    14    10     8 1
    15     8     9 1
    16    11    22 1
    17     9     6 1
    18    22     3 1
    19    22    23 1
    20     3    24 1
    21     6    17 2
    22     6     7 1
    23    23     2 1
    24    24     2 1
    25    12     7 1
    26    12    16 1
    27     7     1 1
    28     4    16 1
    29    16    15 1
    30     1    20 1
    31    15    20 1
    32    20     5 1
    33     1    30 1
    34     1    31 1
    35     2    57 1
    36     2    32 1
    37     3    33 1
    38     3    34 1
    39    58    35 1
    40     4    36 1
    41     4    37 1
    42     4    38 1
    43     5    39 1
    44     5    40 1
    45     5    41 1
    46     9    42 1
    47     9    43 1
    48    12    44 1
    49    12    45 1
    50    14    46 1
    51    16    47 1
    52    19    48 1
    53    20    49 1
    54    22    50 1
    55    23    51 1
    56    23    52 1
    57    24    53 1
    58    24    54 1
    59    26    55 1
    60    27    56 1
@<TRIPOS>SUBSTRUCTURE
     1 CZQ         1 TEMP              0 ****  ****    0 ROOT
