@<TRIPOS>MOLECULE
CZQ
   58    61     1     0     0
SMALL
bcc


@<TRIPOS>ATOM
      1 C10          0.0000     0.0000     0.0000 c3         1 CZQ      -0.103000
      2 C13          8.9330     1.2290    -9.5180 c3         1 CZQ      -0.100000
      3 C15         10.2080    -0.6820    -8.6980 c3         1 CZQ      -0.121000
      4 C20          1.9430     2.4780     1.5580 c3         1 CZQ      -0.136500
      5 C21         -2.0020     1.0240     1.0980 c3         1 CZQ      -0.136500
      6 C01          2.1650     0.0020    -1.1550 c2         1 CZQ       0.224000
      7 N01          1.4710     0.0000     0.0000 n          1 CZQ      -0.016000
      8 O01          4.1710     0.0040    -2.4680 os         1 CZQ      -0.140000
      9 C02          3.6720     0.0030    -1.1290 c3         1 CZQ       0.036000
     10 N02          5.5850     0.0050    -2.5550 n2         1 CZQ       0.053000
     11 O02         10.2490     0.0120    -6.3500 os         1 CZQ      -0.166000
     12 C03          2.1630     0.0000     1.3000 c3         1 CZQ      -0.103000
     13 O03         11.7600     0.0100    -4.0510 os         1 CZQ      -0.181000
     14 C04          6.1610     0.0070    -3.7130 c2         1 CZQ      -0.372000
     15 O04          0.1500     0.9880     2.2000 os         1 CZQ      -0.254000
     16 C05          1.5730     1.1210     2.1610 c3         1 CZQ       0.050500
     17 O05          1.5770     0.0040    -2.2160 o          1 CZQ      -0.377000
     18 C06          7.6340     0.0070    -3.8040 c3         1 CZQ      -0.145000
     19 C07          8.2580     0.0090    -5.0550 c2         1 CZQ      -0.097000
     20 C08         -0.4840     1.1220     0.9260 c3         1 CZQ       0.050500
     21 C09          9.6380     0.0110    -5.1350 c2         1 CZQ       0.069000
     22 C11          9.4080    -0.1120    -7.4980 c3         1 CZQ       0.047000
     23 C12          8.9420     1.2770    -7.9800 c3         1 CZQ      -0.121000
     24 C14          9.3930    -0.1890    -9.9180 c3         1 CZQ      -0.100000
     25 C16         10.4030     0.0100    -3.9700 c2         1 CZQ       0.094000
     26 C18          9.7830     0.0070    -2.7290 c2         1 CZQ      -0.183000
     27 C19          8.4070     0.0130    -2.6420 c2         1 CZQ      -0.081000
     28 F01         12.1490     1.1500    -2.0800 f          1 CZQ      -0.154500
     29 F02         12.1500    -1.1340    -2.0830 f          1 CZQ      -0.154500
     30 H22         -0.3630     0.1760    -1.0050 h1         1 CZQ       0.078000
     31 H21         -0.3630    -0.9540     0.3640 h1         1 CZQ       0.078000
     32 H08          9.6200     1.9660    -9.9160 hc         1 CZQ       0.056250
     33 H15         10.2280    -1.7650    -8.6640 hc         1 CZQ       0.066750
     34 H16         11.2110    -0.2730    -8.7170 hc         1 CZQ       0.066750
     35 H17         13.5460     0.0090    -3.0230 h3         1 CZQ       0.102000
     36 H27          2.9780     2.7030     1.7830 hc         1 CZQ       0.054500
     37 H28          1.8060     2.4450     0.4840 hc         1 CZQ       0.054500
     38 H26          1.3060     3.2460     1.9800 hc         1 CZQ       0.054500
     39 H25         -2.3310     1.7580     1.8230 hc         1 CZQ       0.054500
     40 H23         -2.2620     0.0320     1.4450 hc         1 CZQ       0.054500
     41 H24         -2.4860     1.2130     0.1480 hc         1 CZQ       0.054500
     42 H01          4.0240     0.8860    -0.6110 h1         1 CZQ       0.053500
     43 H02          4.0240    -0.8830    -0.6130 h1         1 CZQ       0.053500
     44 H10          2.0120    -0.9530     1.7920 h1         1 CZQ       0.078000
     45 H12          3.2210     0.1760     1.1490 h1         1 CZQ       0.078000
     46 H03          6.7840    -0.8680    -3.5680 DU         1 CZQ       0.323000
     47 H14          1.9690     1.0480     3.1670 h1         1 CZQ       0.072500
     48 H04          7.6630    -0.0660    -5.9570 ha         1 CZQ       0.149000
     49 H19         -0.2260     2.0810     0.4940 h1         1 CZQ       0.072500
     50 H05          8.5530    -0.7420    -7.2830 h1         1 CZQ       0.067000
     51 H07          7.9450     1.4820    -7.6100 hc         1 CZQ       0.066750
     52 H06          9.6340     2.0380    -7.6390 hc         1 CZQ       0.066750
     53 H13          8.5360    -0.8310   -10.0840 hc         1 CZQ       0.056250
     54 H11         10.0210    -0.1470   -10.8000 hc         1 CZQ       0.056250
     55 H18         10.3810     0.0110    -1.8250 ha         1 CZQ       0.139000
     56 H20          7.9260     0.0110    -1.6720 ha         1 CZQ       0.125000
     57 H09          7.9300     1.4100    -9.8880 hc         1 CZQ       0.056250
     58 C17         12.4820     0.0080    -2.8180 c3         1 CZQ       0.333000
@<TRIPOS>BOND
     1     1     7 1   
     2     1    20 1   
     3     1    30 1   
     4     1    31 1   
     5     2    23 1   
     6     2    24 1   
     7     2    32 1   
     8     2    57 1   
     9     3    22 1   
    10     3    24 1   
    11     3    33 1   
    12     3    34 1   
    13     4    16 1   
    14     4    36 1   
    15     4    37 1   
    16     4    38 1   
    17     5    20 1   
    18     5    39 1   
    19     5    40 1   
    20     5    41 1   
    21     6     7 1   
    22     6     9 1   
    23     6    17 1   
    24     7    12 1   
    25     8     9 1   
    26     8    10 1   
    27     9    42 1   
    28     9    43 1   
    29    10    14 1   
    30    11    21 1   
    31    11    22 1   
    32    12    16 1   
    33    12    44 1   
    34    12    45 1   
    35    13    25 1   
    36    13    58 1   
    37    14    18 1   
    38    14    46 1   
    39    15    16 1   
    40    15    20 1   
    41    16    47 1   
    42    18    19 1   
    43    18    27 1   
    44    18    46 1   
    45    19    21 1   
    46    19    48 1   
    47    20    49 1   
    48    21    25 1   
    49    22    23 1   
    50    22    50 1   
    51    23    51 1   
    52    23    52 1   
    53    24    53 1   
    54    24    54 1   
    55    25    26 1   
    56    26    27 1   
    57    26    55 1   
    58    27    56 1   
    59    28    58 1   
    60    29    58 1   
    61    35    58 1   
@<TRIPOS>SUBSTRUCTURE
     1 CZQ         1 TEMP              0 ****  ****    0 ROOT
