@<TRIPOS>MOLECULE
molecule
   63    65     1     0     0
SMALL
bcc


@<TRIPOS>ATOM
      1 C10          0.0000     0.0000     0.0000 c3         1 CZT       0.133100
      2 C13          0.8250     0.9190     2.1400 c3         1 CZT      -0.083900
      3 C15         -1.2980     0.0800    -3.4290 ca         1 CZT       0.130100
      4 C17         -1.5080    -0.8150    -4.4680 ca         1 CZT      -0.200000
      5 C20          0.7320   -12.9070    -6.5110 c3         1 CZT       0.146600
      6 C21          0.7150   -13.7580    -7.7820 c3         1 CZT      -0.087100
      7 C22         -0.1720    -9.3050    -5.8830 c3         1 CZT       0.165800
      8 C01         -1.2210   -13.4070    -3.3740 c3         1 CZT      -0.087100
      9 C02         -0.2280   -12.7330    -4.3240 c3         1 CZT       0.146600
     10 C03         -0.7000   -11.3100    -4.6310 c3         1 CZT       0.128800
     11 N01          0.2140   -10.6940    -5.6030 n3         1 CZT      -0.718600
     12 C04          0.2360    -8.4150    -4.7080 c3         1 CZT       0.152100
     13 C05         -0.2210    -6.9790    -4.9720 c3         1 CZT       0.125400
     14 O01          0.0550    -6.1720    -3.8250 os         1 CZT      -0.214300
     15 N02         -0.3330    -4.8180    -3.9660 n2         1 CZT      -0.445200
     16 C07         -0.5390    -2.5720    -3.1450 ca         1 CZT      -0.139900
     17 C08         -0.3280    -1.6700    -2.1000 ca         1 CZT      -0.170000
     18 C09         -0.7060    -0.3490    -2.2440 ca         1 CZT       0.115100
     19 O02         -0.5010     0.5320    -1.2280 os         1 CZT      -0.306900
     20 C11          1.5490     0.0000     0.0000 c3         1 CZT      -0.093900
     21 C12          1.8910     0.0000     1.5100 c3         1 CZT      -0.083900
     22 C14         -0.3790     0.9190     1.1800 c3         1 CZT      -0.093900
     23 C16         -2.2660     1.7540    -4.8130 c3         1 CZT       0.126700
     24 C18         -1.1330    -2.1350    -4.3310 ca         1 CZT      -0.088000
     25 O04          1.6570    -8.4430    -4.5590 oh         1 CZT      -0.585800
     26 C19          0.2690   -11.4850    -6.8410 c3         1 CZT       0.128800
     27 O05         -0.1510   -13.4780    -5.5420 os         1 CZT      -0.425600
     28 H11         -0.3760    -1.0020     0.1670 h1         1 CZT       0.050700
     29 H17          1.2160     1.9240     2.2410 hc         1 CZT       0.046450
     30 H16          0.5270     0.5320     3.1070 hc         1 CZT       0.046450
     31 H23         -1.9690    -0.4770    -5.3880 ha         1 CZT       0.143000
     32 H34          1.7360   -12.8730    -6.1070 h1         1 CZT       0.049700
     33 H33          1.0030   -14.7740    -7.5400 hc         1 CZT       0.044867
     34 H31         -0.2830   -13.7570    -8.2040 hc         1 CZT       0.044867
     35 H29          0.3280    -8.9660    -6.7830 h1         1 CZT       0.045700
     36 H30         -1.2440    -9.2500    -6.0230 h1         1 CZT       0.045700
     37 H03         -1.2920   -12.8320    -2.4590 hc         1 CZT       0.044867
     38 H02         -0.8790   -14.4090    -3.1460 hc         1 CZT       0.044867
     39 H01         -2.1950   -13.4570    -3.8450 hc         1 CZT       0.044867
     40 H04          0.7510   -12.6950    -3.8630 h1         1 CZT       0.049700
     41 H06         -1.7000   -11.3440    -5.0480 h1         1 CZT       0.042200
     42 H05         -0.7030   -10.7270    -3.7190 h1         1 CZT       0.042200
     43 H28         -0.2290    -8.7810    -3.8000 h1         1 CZT       0.039700
     44 H07         -1.2860    -6.9700    -5.1720 h1         1 CZT       0.044200
     45 H08          0.3100    -6.5830    -5.8290 h1         1 CZT       0.044200
     46 H10          0.1330    -2.0050    -1.1790 ha         1 CZT       0.146000
     47 H13          1.9310    -0.8940    -0.4780 hc         1 CZT       0.057700
     48 H12          1.9310     0.8940    -0.4780 hc         1 CZT       0.057700
     49 H14          1.8120    -1.0020     1.9150 hc         1 CZT       0.046450
     50 H15          2.8820     0.4050     1.6730 hc         1 CZT       0.046450
     51 H18         -0.5660     1.9240     0.8210 hc         1 CZT       0.057700
     52 H19         -1.2540     0.5300     1.6850 hc         1 CZT       0.057700
     53 H20         -3.1660     1.1750    -4.9800 h1         1 CZT       0.041700
     54 H21         -1.5610     1.5650    -5.6140 h1         1 CZT       0.041700
     55 H22         -2.5140     2.8080    -4.7920 h1         1 CZT       0.041700
     56 H24         -1.2980    -2.8320    -5.1440 ha         1 CZT       0.153000
     57 H27          1.8780    -8.4070    -3.6440 ho         1 CZT       0.406000
     58 H25          0.9700   -11.0290    -7.5300 h1         1 CZT       0.042200
     59 H26         -0.7160   -11.5220    -7.2900 h1         1 CZT       0.042200
     60 O03         -1.6650     1.3820    -3.5710 os         1 CZT      -0.310900
     61 C06         -0.1350    -3.9840    -2.9980 ce         1 CZT       0.439800
     62 H32          1.4120   -13.3470    -8.5020 hc         1 CZT       0.044867
     63 H09          0.3270    -4.3210    -2.0780 h4         1 CZT      -0.002200
@<TRIPOS>BOND
     1    23    60 1
     2     4    24 ar
     3     4     3 ar
     4    24    16 ar
     5    60     3 1
     6     3    18 ar
     7    16    61 1
     8    16    17 ar
     9    61    15 2
    10    18    17 ar
    11    18    19 1
    12    15    14 1
    13    14    13 1
    14    19     1 1
    15    25    12 1
    16    13    12 1
    17    12     7 1
    18     1    22 1
    19     1    20 1
    20    22     2 1
    21     2    21 1
    22     7    11 1
    23    20    21 1
    24    11    10 1
    25    11    26 1
    26    10     9 1
    27    26     5 1
    28     9     8 1
    29     9    27 1
    30     5    27 1
    31     5     6 1
    32     1    28 1
    33     2    29 1
    34     2    30 1
    35     4    31 1
    36     5    32 1
    37     6    62 1
    38     6    33 1
    39     6    34 1
    40     7    35 1
    41     7    36 1
    42     8    37 1
    43     8    38 1
    44     8    39 1
    45     9    40 1
    46    10    41 1
    47    10    42 1
    48    12    43 1
    49    13    44 1
    50    13    45 1
    51    61    63 1
    52    17    46 1
    53    20    47 1
    54    20    48 1
    55    21    49 1
    56    21    50 1
    57    22    51 1
    58    22    52 1
    59    23    53 1
    60    23    54 1
    61    23    55 1
    62    24    56 1
    63    25    57 1
    64    26    58 1
    65    26    59 1
@<TRIPOS>SUBSTRUCTURE
     1 CZT         1 TEMP              0 ****  ****    0 ROOT
