@<TRIPOS>MOLECULE
CZT
   63    66     1     0     0
SMALL
bcc


@<TRIPOS>ATOM
      1 C10          0.0000     0.0000     0.0000 c3         1 CZT       0.046000
      2 C13          0.8250     0.9190     2.1400 c3         1 CZT      -0.100000
      3 C15         -1.2980     0.0800    -3.4290 c2         1 CZT       0.114000
      4 C17         -1.5080    -0.8150    -4.4680 c2         1 CZT      -0.200000
      5 C20          0.7320   -12.9070    -6.5110 c3         1 CZT       0.070000
      6 C21          0.7150   -13.7580    -7.7820 c3         1 CZT      -0.119000
      7 C22         -0.1720    -9.3050    -5.8830 c3         1 CZT      -0.093000
      8 C01         -1.2210   -13.4070    -3.3740 c3         1 CZT      -0.119000
      9 C02         -0.2280   -12.7330    -4.3240 c3         1 CZT       0.070000
     10 C03         -0.7000   -11.3100    -4.6310 c3         1 CZT      -0.125000
     11 N01          0.2140   -10.6940    -5.6030 n3         1 CZT      -0.050000
     12 C04          0.2360    -8.4150    -4.7080 c3         1 CZT       0.073000
     13 C05         -0.2210    -6.9790    -4.9720 c3         1 CZT       0.031000
     14 O01          0.0550    -6.1720    -3.8250 os         1 CZT      -0.182000
     15 N02         -0.3330    -4.8180    -3.9660 n2         1 CZT       0.066000
     16 C07         -0.5390    -2.5720    -3.1450 c3         1 CZT      -0.151000
     17 C08         -0.3280    -1.6700    -2.1000 c2         1 CZT      -0.098000
     18 C09         -0.7060    -0.3490    -2.2440 c2         1 CZT       0.055000
     19 O02         -0.5010     0.5320    -1.2280 os         1 CZT      -0.164000
     20 C11          1.5490     0.0000     0.0000 c3         1 CZT      -0.121500
     21 C12          1.8910     0.0000     1.5100 c3         1 CZT      -0.100000
     22 C14         -0.3790     0.9190     1.1800 c3         1 CZT      -0.121500
     23 C16         -2.2660     1.7540    -4.8130 c3         1 CZT       0.051000
     24 C18         -1.1330    -2.1350    -4.3310 c2         1 CZT      -0.080000
     25 O04          1.6570    -8.4430    -4.5590 oh         1 CZT      -0.295000
     26 C19          0.2690   -11.4850    -6.8410 c3         1 CZT      -0.125000
     27 O05         -0.1510   -13.4780    -5.5420 os         1 CZT      -0.266000
     28 H11         -0.3760    -1.0020     0.1670 h1         1 CZT       0.067000
     29 H17          0.5270     0.5320     3.1070 hc         1 CZT       0.055500
     30 H16          1.2160     1.9240     2.2410 hc         1 CZT       0.055500
     31 H23         -1.9690    -0.4770    -5.3890 ha         1 CZT       0.128000
     32 H34          1.7360   -12.8730    -6.1070 h1         1 CZT       0.058500
     33 H33          1.7130   -14.1300    -7.9810 hc         1 CZT       0.050333
     34 H31          0.0380   -14.5940    -7.6480 hc         1 CZT       0.050333
     35 H29         -1.2440    -9.2490    -6.0240 h1         1 CZT       0.058000
     36 H30          0.3280    -8.9660    -6.7830 h1         1 CZT       0.058000
     37 H03         -0.7120   -13.6880    -2.4600 hc         1 CZT       0.050333
     38 H02         -1.6290   -14.2920    -3.8470 hc         1 CZT       0.050333
     39 H01         -2.0240   -12.7180    -3.1430 hc         1 CZT       0.050333
     40 H04          0.7510   -12.6950    -3.8630 h1         1 CZT       0.058500
     41 H06         -0.7030   -10.7270    -3.7190 h1         1 CZT       0.058250
     42 H05         -1.7000   -11.3440    -5.0480 h1         1 CZT       0.058250
     43 H28         -0.2290    -8.7810    -3.8000 h1         1 CZT       0.048000
     44 H07         -1.2860    -6.9700    -5.1720 h1         1 CZT       0.047000
     45 H08          0.3100    -6.5830    -5.8290 h1         1 CZT       0.047000
     46 H10          0.1330    -2.0050    -1.1790 ha         1 CZT       0.147000
     47 H13          1.9310    -0.8940    -0.4780 hc         1 CZT       0.067000
     48 H12          1.9310     0.8940    -0.4780 hc         1 CZT       0.067000
     49 H14          1.8130    -1.0020     1.9150 hc         1 CZT       0.055500
     50 H15          2.8820     0.4050     1.6720 hc         1 CZT       0.055500
     51 H18         -1.2540     0.5300     1.6850 hc         1 CZT       0.067000
     52 H19         -0.5660     1.9240     0.8210 hc         1 CZT       0.067000
     53 H20         -2.5190     2.8070    -4.8100 h1         1 CZT       0.039333
     54 H21         -3.1660     1.1670    -4.9560 h1         1 CZT       0.039333
     55 H22         -1.5710     1.5510    -5.6190 h1         1 CZT       0.039333
     56 H24         -1.2980    -2.8320    -5.1440 ha         1 CZT       0.123000
     57 H27          1.8760    -8.5180    -3.6460 ho         1 CZT       0.194000
     58 H25          0.9700   -11.0290    -7.5300 h1         1 CZT       0.058250
     59 H26         -0.7160   -11.5220    -7.2900 h1         1 CZT       0.058250
     60 O03         -1.6650     1.3820    -3.5710 os         1 CZT      -0.170000
     61 C06         -0.1350    -3.9840    -2.9980 c2         1 CZT      -0.398000
     62 H32          0.3810   -13.1540    -8.6170 hc         1 CZT       0.050333
     63 H09         -1.1530    -3.6260    -2.9040 DU         1 CZT       0.327000
@<TRIPOS>BOND
     1     1    19 1   
     2     1    20 1   
     3     1    22 1   
     4     1    28 1   
     5     2    21 1   
     6     2    22 1   
     7     2    29 1   
     8     2    30 1   
     9     3     4 1   
    10     3    18 1   
    11     3    60 1   
    12     4    24 1   
    13     4    31 1   
    14     5     6 1   
    15     5    26 1   
    16     5    27 1   
    17     5    32 1   
    18     6    33 1   
    19     6    34 1   
    20     6    62 1   
    21     7    11 1   
    22     7    12 1   
    23     7    35 1   
    24     7    36 1   
    25     8     9 1   
    26     8    37 1   
    27     8    38 1   
    28     8    39 1   
    29     9    10 1   
    30     9    27 1   
    31     9    40 1   
    32    10    11 1   
    33    10    41 1   
    34    10    42 1   
    35    11    26 1   
    36    12    13 1   
    37    12    25 1   
    38    12    43 1   
    39    13    14 1   
    40    13    44 1   
    41    13    45 1   
    42    14    15 1   
    43    15    61 1   
    44    16    17 1   
    45    16    24 1   
    46    16    61 1   
    47    16    63 1   
    48    17    18 1   
    49    17    46 1   
    50    18    19 1   
    51    20    21 1   
    52    20    47 1   
    53    20    48 1   
    54    21    49 1   
    55    21    50 1   
    56    22    51 1   
    57    22    52 1   
    58    23    53 1   
    59    23    54 1   
    60    23    55 1   
    61    23    60 1   
    62    24    56 1   
    63    25    57 1   
    64    26    58 1   
    65    26    59 1   
    66    61    63 1   
@<TRIPOS>SUBSTRUCTURE
     1 CZT         1 TEMP              0 ****  ****    0 ROOT
