@<TRIPOS>MOLECULE
molecule
   35    38     1     0     0
SMALL
bcc


@<TRIPOS>ATOM
      1 C2           0.0000     0.0000     0.0000 ca         1 CZV      -0.560500
      2 C3           1.4090     0.0000     0.0000 ca         1 CZV       0.797200
      3 N4          -2.0020    -0.0090     0.9630 na         1 CZV      -0.131800
      4 C5           4.2990     0.9980    -0.4380 ca         1 CZV      -0.007300
      5 C7           4.2760     3.1850     0.5370 ca         1 CZV      -0.076500
      6 C9           6.3110     1.9240     0.4730 ca         1 CZV      -0.076500
      7 C10          5.6470     0.8860    -0.1550 ca         1 CZV      -0.121500
      8 C12          4.3390    -0.8450    -2.2360 cx         1 CZV      -0.123900
      9 C13          4.2000    -1.5090    -0.8640 cx         1 CZV      -0.123900
     10 C            1.3710     0.0010     2.3080 ca         1 CZV       0.857000
     11 N1           0.0560    -0.0060     2.3590 nb         1 CZV      -0.799000
     12 C1          -0.6670    -0.0050     1.2400 ca         1 CZV       0.546800
     13 N3          -2.1620    -0.0000    -0.4290 nc         1 CZV      -0.498100
     14 C14         -0.9920    -0.0010    -1.0040 cd         1 CZV       0.404800
     15 N            2.0410     0.0000     1.1680 nb         1 CZV      -0.822000
     16 N2           2.1150    -0.0010    -1.1870 nu         1 CZV      -0.855900
     17 C4           3.5740    -0.1350    -1.1160 cx         1 CZV       0.211500
     18 C8           5.6250     3.0740     0.8210 ca         1 CZV      -0.184300
     19 F2           5.4550     4.8920     2.3370 f          1 CZV      -0.224633
     20 F1           7.3970     3.6880     2.2750 f          1 CZV      -0.224633
     21 F            6.8610     5.0810     0.5450 f          1 CZV      -0.224633
     22 C6           3.6120     2.1480    -0.0910 ca         1 CZV      -0.121500
     23 H1          -2.7410    -0.0100     1.6380 hn         1 CZV       0.347700
     24 H2           3.7390     4.0860     0.8090 ha         1 CZV       0.146500
     25 H3           7.3670     1.8360     0.6940 ha         1 CZV       0.146500
     26 H4           6.1850    -0.0140    -0.4280 ha         1 CZV       0.140000
     27 H5           3.7280    -1.2680    -3.0230 hc         1 CZV       0.086200
     28 H6           5.3180    -0.4410    -2.4620 hc         1 CZV       0.086200
     29 H7           3.5050    -2.3370    -0.8140 hc         1 CZV       0.086200
     30 H8           5.0950    -1.5100    -0.2530 hc         1 CZV       0.086200
     31 H9          -0.8120     0.0050    -2.0720 h4         1 CZV       0.055800
     32 H10          1.6320    -0.1060    -2.0570 hn         1 CZV       0.459800
     33 H11          2.5560     2.2360    -0.3120 ha         1 CZV       0.140000
     34 Cl           2.2630     0.0020     3.7980 cl         1 CZV      -0.097000
     35 C11          6.3470     4.2030     1.5060 c3         1 CZV       0.674200
@<TRIPOS>BOND
     1    34    10 1
     2    10    15 ar
     3    10    11 ar
     4    15     2 ar
     5    11    12 ar
     6     2    16 1
     7     2     1 ar
     8    12     1 ar
     9    12     3 1
    10    16    17 1
    11     1    14 1
    12     3    13 1
    13     7     6 ar
    14     7     4 ar
    15     6    18 ar
    16    17     4 1
    17    17     9 1
    18    17     8 1
    19    14    13 2
    20     4    22 ar
    21     9     8 1
    22    19    35 1
    23    18    35 1
    24    18     5 ar
    25    20    35 1
    26    35    21 1
    27    22     5 ar
    28     3    23 1
    29     5    24 1
    30     6    25 1
    31     7    26 1
    32     8    27 1
    33     8    28 1
    34     9    29 1
    35     9    30 1
    36    14    31 1
    37    16    32 1
    38    22    33 1
@<TRIPOS>SUBSTRUCTURE
     1 CZV         1 TEMP              0 ****  ****    0 ROOT
