@<TRIPOS>MOLECULE
CZV
   35    38     1     0     0
SMALL
bcc


@<TRIPOS>ATOM
      1 C2           0.0000     0.0000     0.0000 ca         1 CZV      -0.577500
      2 C3           1.4090     0.0000     0.0000 ca         1 CZV       0.619200
      3 N4          -2.0020    -0.0090     0.9630 na         1 CZV       0.349200
      4 C5           4.2990     0.9980    -0.4380 ca         1 CZV      -0.001300
      5 C7           4.2760     3.1850     0.5370 ca         1 CZV      -0.033500
      6 C9           6.3110     1.9240     0.4730 ca         1 CZV      -0.033500
      7 C10          5.6470     0.8860    -0.1550 ca         1 CZV      -0.106500
      8 C12          4.3390    -0.8450    -2.2360 cx         1 CZV      -0.066900
      9 C13          4.2000    -1.5090    -0.8640 cx         1 CZV      -0.066900
     10 C            1.3710     0.0010     2.3080 ca         1 CZV       0.693000
     11 N1           0.0560    -0.0060     2.3590 nb         1 CZV      -0.676000
     12 C1          -0.6670    -0.0050     1.2400 ca         1 CZV       0.333800
     13 N3          -2.1620    -0.0000    -0.4290 nc         1 CZV      -0.650100
     14 C14         -0.9920    -0.0010    -1.0040 cd         1 CZV       0.473800
     15 N            2.0410     0.0000     1.1680 nb         1 CZV      -0.724000
     16 N2           2.1150    -0.0010    -1.1870 nu         1 CZV      -0.415900
     17 C4           3.5740    -0.1350    -1.1160 cx         1 CZV       0.084500
     18 C8           5.6250     3.0740     0.8210 ca         1 CZV      -0.216300
     19 F2           5.4550     4.8920     2.3370 f          1 CZV      -0.209300
     20 F1           7.3970     3.6880     2.2750 f          1 CZV      -0.209300
     21 F            6.8610     5.0810     0.5450 f          1 CZV      -0.209300
     22 C6           3.6120     2.1480    -0.0910 ca         1 CZV      -0.106500
     23 H1          -2.7410    -0.0100     1.6380 hn         1 CZV       0.160700
     24 H2           3.7390     4.0860     0.8090 ha         1 CZV       0.117000
     25 H3           7.3670     1.8360     0.6940 ha         1 CZV       0.117000
     26 H4           6.1850    -0.0140    -0.4280 ha         1 CZV       0.117500
     27 H5           3.7280    -1.2680    -3.0230 hc         1 CZV       0.055950
     28 H6           5.3180    -0.4410    -2.4620 hc         1 CZV       0.055950
     29 H7           3.5050    -2.3370    -0.8140 hc         1 CZV       0.055950
     30 H8           5.0950    -1.5100    -0.2530 hc         1 CZV       0.055950
     31 H9          -0.8120     0.0050    -2.0720 h4         1 CZV       0.007800
     32 H10          1.6320    -0.1060    -2.0570 hn         1 CZV       0.295800
     33 H11          2.5560     2.2360    -0.3120 ha         1 CZV       0.117500
     34 Cl           2.2630     0.0020     3.7980 cl         1 CZV      -0.048000
     35 C11          6.3470     4.2030     1.5060 c3         1 CZV       0.642200
@<TRIPOS>BOND
     1     1     2 ar  
     2     1    12 ar  
     3     1    14 1   
     4     2    15 ar  
     5     2    16 1   
     6     3    12 1   
     7     3    13 1   
     8     3    23 1   
     9     4     7 ar  
    10     4    17 1   
    11     4    22 ar  
    12     5    18 ar  
    13     5    22 ar  
    14     5    24 1   
    15     6     7 ar  
    16     6    18 ar  
    17     6    25 1   
    18     7    26 1   
    19     8     9 1   
    20     8    17 1   
    21     8    27 1   
    22     8    28 1   
    23     9    17 1   
    24     9    29 1   
    25     9    30 1   
    26    10    11 ar  
    27    10    15 ar  
    28    10    34 1   
    29    11    12 ar  
    30    13    14 2   
    31    14    31 1   
    32    16    17 1   
    33    16    32 1   
    34    18    35 1   
    35    19    35 1   
    36    20    35 1   
    37    21    35 1   
    38    22    33 1   
@<TRIPOS>SUBSTRUCTURE
     1 CZV         1 TEMP              0 ****  ****    0 ROOT
