@<TRIPOS>MOLECULE
molecule
   37    39     1     0     0
SMALL
bcc


@<TRIPOS>ATOM
      1 C2           0.0000     0.0000     0.0000 ca         1 CZY      -0.559500
      2 C3           1.4090     0.0000     0.0000 ca         1 CZY       0.807200
      3 N4          -2.0010     0.0090     0.9640 na         1 CZY      -0.020800
      4 C5           4.1010    -0.5970    -2.4490 ca         1 CZY      -0.071300
      5 C7           5.6700    -1.9950    -3.5970 ca         1 CZY      -0.075000
      6 C9           3.9530    -0.8640    -4.8230 ca         1 CZY      -0.075000
      7 C10          3.4790    -0.3090    -3.6490 ca         1 CZY      -0.128500
      8 C12          4.0890     1.4390    -1.0330 c3         1 CZY      -0.105100
      9 C13         -0.9920     0.0010    -1.0040 cc         1 CZY       0.404800
     10 C            1.3720    -0.0010     2.3080 ca         1 CZY       0.858000
     11 N1           0.0570     0.0050     2.3590 nb         1 CZY      -0.800000
     12 C1          -0.6670     0.0050     1.2400 ca         1 CZY       0.546800
     13 C14         -3.0830     0.0110     1.9510 c3         1 CZY       0.073600
     14 N3          -2.1600     0.0000    -0.4280 nd         1 CZY      -0.502100
     15 N            2.0410     0.0000     1.1680 nb         1 CZY      -0.844000
     16 N2           2.1160     0.0020    -1.1870 nu         1 CZY      -0.892900
     17 C4           3.5810     0.0010    -1.1670 c3         1 CZY       0.282800
     18 C8           5.0470    -1.7070    -4.7970 ca         1 CZY      -0.179300
     19 F2           4.5020    -2.4770    -6.9750 f          1 CZY      -0.222300
     20 F1           6.5240    -1.4660    -6.6400 f          1 CZY      -0.222300
     21 F            6.1400    -3.5580    -5.8050 f          1 CZY      -0.222300
     22 C6           5.1950    -1.4410    -2.4220 ca         1 CZY      -0.128500
     23 H1           6.5270    -2.6570    -3.5770 ha         1 CZY       0.150000
     24 H2           3.4660    -0.6380    -5.7640 ha         1 CZY       0.150000
     25 H3           2.6220     0.3530    -3.6690 ha         1 CZY       0.140000
     26 H4           5.1050     1.4990    -1.4040 hc         1 CZY       0.049700
     27 H5           4.0670     1.7340     0.0090 hc         1 CZY       0.049700
     28 H6           3.4540     2.1010    -1.6100 hc         1 CZY       0.049700
     29 H7          -0.8130    -0.0050    -2.0720 h4         1 CZY       0.054800
     30 H8          -3.0090    -0.8750     2.5700 h1         1 CZY       0.059367
     31 H9          -3.0010     0.8940     2.5740 h1         1 CZY       0.059367
     32 H10         -4.0380     0.0170     1.4410 h1         1 CZY       0.059367
     33 H11          1.6270    -0.0180    -2.0600 hn         1 CZY       0.453800
     34 H12          3.9310    -0.5850    -0.3260 h1         1 CZY       0.093700
     35 H13          5.6830    -1.6670    -1.4810 ha         1 CZY       0.140000
     36 Cl           2.2630    -0.0010     3.7980 cl         1 CZY      -0.106000
     37 C11          5.5620    -2.3140    -6.0770 c3         1 CZY       0.673200
@<TRIPOS>BOND
     1    36    10 1
     2    10    11 ar
     3    10    15 ar
     4    11    12 ar
     5    15     2 ar
     6    12     3 1
     7    12     1 ar
     8     2    16 1
     9     2     1 ar
    10    13     3 1
    11     3    14 1
    12    16    17 1
    13     1     9 1
    14     7     6 ar
    15     7     4 ar
    16     6    18 ar
    17    14     9 2
    18    21    37 1
    19    17     4 1
    20    17     8 1
    21     4    22 ar
    22    18    37 1
    23    18     5 ar
    24    37    20 1
    25    37    19 1
    26    22     5 ar
    27     5    23 1
    28     6    24 1
    29     7    25 1
    30     8    26 1
    31     8    27 1
    32     8    28 1
    33     9    29 1
    34    13    30 1
    35    13    31 1
    36    13    32 1
    37    16    33 1
    38    17    34 1
    39    22    35 1
@<TRIPOS>SUBSTRUCTURE
     1 CZY         1 TEMP              0 ****  ****    0 ROOT
