@<TRIPOS>MOLECULE
molecule
   49    52     1     0     0
SMALL
bcc


@<TRIPOS>ATOM
      1 C10          0.0000     0.0000     0.0000 c3         1 700      -0.049100
      2 C11         -0.5020     0.0010    -1.4210 ca         1 700      -0.049300
      3 C12         -0.7320    -1.1960    -2.0730 ca         1 700      -0.118000
      4 C13         -1.1930    -1.1950    -3.3760 ca         1 700      -0.133000
      5 C14         -1.4240     0.0020    -4.0270 ca         1 700      -0.134000
      6 C15         -1.1950     1.1990    -3.3740 ca         1 700      -0.133000
      7 C16         -0.7390     1.1980    -2.0700 ca         1 700      -0.118000
      8 C17          1.5290     0.0000     0.0000 c3         1 700       0.048700
      9 C18          2.0320     0.0000     1.4210 c          1 700       0.666100
     10 O2           2.7290    -0.9100     1.8170 o          1 700      -0.653100
     11 N3           1.7050     1.0100     2.2510 nj         1 700      -0.514800
     12 C19          2.0070     1.3290     3.6600 cy         1 700       0.108500
     13 C20          1.7540     2.7970     3.2730 cy         1 700      -0.194700
     14 C21          0.9600     3.5670     4.2960 c          1 700       0.894600
     15 O3           0.6170     3.0300     5.3230 o          1 700      -0.836800
     16 O4           0.6350     4.8490     4.0680 o          1 700      -0.836800
     17 C22          0.9030     2.2440     2.1150 cy         1 700       0.108500
     18 N1           2.0180    -1.1950    -0.6920 ns         1 700      -0.559900
     19 C9           2.2430    -1.1610    -2.0180 c          1 700       0.689300
     20 C8           2.7320    -2.3610    -2.7130 cc         1 700      -0.109300
     21 C7           2.9900    -2.4510    -4.0430 cd         1 700      -0.119200
     22 C6           3.4450    -3.7660    -4.3070 ca         1 700      -0.109800
     23 C1           3.4390    -4.4560    -3.0790 ca         1 700      -0.034200
     24 C2           3.8410    -5.7880    -3.0410 ca         1 700      -0.135000
     25 C3           4.2390    -6.4170    -4.2000 ca         1 700      -0.104000
     26 C4           4.2440    -5.7350    -5.4090 ca         1 700      -0.003600
     27 Cl1          4.7510    -6.5510    -6.8560 cl         1 700      -0.128400
     28 C5           3.8540    -4.4270    -5.4720 ca         1 700      -0.066000
     29 N2           3.0000    -3.5770    -2.1160 na         1 700      -0.169400
     30 O1           2.0400    -0.1370    -2.6440 o          1 700      -0.588100
     31 H101        -0.3610    -0.8850     0.5100 hc         1 700       0.063700
     32 H102        -0.3610     0.8840     0.5110 hc         1 700       0.063700
     33 H121        -0.6210    -2.1330    -1.5400 ha         1 700       0.131000
     34 H131        -1.4030    -2.1320    -3.8770 ha         1 700       0.121000
     35 H141        -1.8030     0.0030    -5.0420 ha         1 700       0.117000
     36 H151        -1.3880     2.1370    -3.8800 ha         1 700       0.121000
     37 H161        -0.8520     2.2330    -1.7700 ha         1 700       0.131000
     38 H171         1.8890     0.8850    -0.5100 h1         1 700       0.102700
     39 H191         1.2710     0.9390     4.3530 h1         1 700       0.060450
     40 H192         3.0370     1.1320     3.9300 h1         1 700       0.060450
     41 H201         2.6500     3.3000     2.9310 hc         1 700       0.067700
     42 H221         1.0720     2.7610     1.1780 h1         1 700       0.060450
     43 H222        -0.1380     2.1070     2.3800 h1         1 700       0.060450
     44 HN1          2.2080    -2.0300    -0.1740 hn         1 700       0.322500
     45 H7           2.9490    -1.6370    -4.7570 ha         1 700       0.174000
     46 H2           3.8410    -6.3290    -2.1020 ha         1 700       0.132000
     47 H3           4.5510    -7.4540    -4.1670 ha         1 700       0.140000
     48 H5           3.8610    -3.9030    -6.4200 ha         1 700       0.144000
     49 HN2          2.8920    -3.7850    -1.1430 hn         1 700       0.305700
@<TRIPOS>BOND
     1     1     2 1   
     2     1     8 1   
     3     1    31 1   
     4     1    32 1   
     5     2     3 ar  
     6     2     7 ar  
     7     3     4 ar  
     8     3    33 1   
     9     4     5 ar  
    10     4    34 1   
    11     5     6 ar  
    12     5    35 1   
    13     6     7 ar  
    14     6    36 1   
    15     7    37 1   
    16     8     9 1   
    17     8    18 1   
    18     8    38 1   
    19     9    10 2   
    20     9    11 1   
    21    11    12 1   
    22    11    17 1   
    23    12    13 1   
    24    12    39 1   
    25    12    40 1   
    26    13    14 1   
    27    13    17 1   
    28    13    41 1   
    29    14    15 1   
    30    14    16 1   
    31    17    42 1   
    32    17    43 1   
    33    18    19 1   
    34    18    44 1   
    35    19    20 1   
    36    19    30 2   
    37    20    21 2   
    38    20    29 1   
    39    21    22 1   
    40    21    45 1   
    41    22    23 ar  
    42    22    28 ar  
    43    23    24 ar  
    44    23    29 1   
    45    24    25 ar  
    46    24    46 1   
    47    25    26 ar  
    48    25    47 1   
    49    26    27 1   
    50    26    28 ar  
    51    28    48 1   
    52    29    49 1   
@<TRIPOS>SUBSTRUCTURE
     1 700         1 TEMP              0 ****  ****    0 ROOT
