@<TRIPOS>MOLECULE
molecule
   53    55     1     0     0
SMALL
bcc


@<TRIPOS>ATOM
      1 Cl1          0.0000     0.0000     0.0000 cl         1 701      -0.044400
      2 C1           1.7130     0.0000     0.0000 cc         1 701       0.013300
      3 C2           2.5580     0.0000     1.0880 cd         1 701      -0.144000
      4 C3           3.9290    -0.0010     0.7010 cd         1 701      -0.111000
      5 C4           4.0520    -0.0020    -0.6500 cc         1 701      -0.098900
      6 C9           5.2740    -0.0050    -1.4210 ce         1 701       0.130600
      7 C8           5.9260     1.2940    -1.8480 c3         1 701      -0.097900
      8 S1           7.2010    -1.3900    -2.6890 sy         1 701       1.311800
      9 O2           6.9300    -0.8660    -4.0160 o          1 701      -0.614800
     10 O1           8.3110    -0.8570    -1.9190 o          1 701      -0.614800
     11 N1           7.4390    -3.0910    -2.8240 n7         1 701      -0.867100
     12 C12          6.6300    -3.8290    -3.8100 c3         1 701       0.163500
     13 C13          7.3830    -4.0070    -5.1240 c3         1 701      -0.116400
     14 C14          8.1640    -5.2960    -4.9360 c3         1 701       0.102000
     15 C15          6.4740    -5.2340    -3.2820 c          1 701       0.721500
     16 O3           5.7290    -5.5570    -2.3680 o          1 701      -0.582500
     17 N2           7.3620    -6.0400    -3.9920 n          1 701      -0.499800
     18 C16          7.6070    -7.4420    -3.7340 c3         1 701       0.055700
     19 C17          8.0280    -7.6980    -2.3060 c3         1 701      -0.106100
     20 C18          6.2910    -8.1140    -4.0310 c          1 701       0.664100
     21 O4           5.3120    -7.4250    -4.3280 o          1 701      -0.568100
     22 N3           6.2710    -9.5050    -3.9530 n          1 701      -0.508800
     23 C19          7.4160   -10.3530    -3.6050 c3         1 701       0.068500
     24 C20          7.4920   -11.5480    -4.5470 c3         1 701       0.115900
     25 O5           6.2490   -12.2580    -4.5540 os         1 701      -0.408600
     26 C22          5.1860   -11.4250    -5.0230 c3         1 701       0.115900
     27 C23          5.0090   -10.2290    -4.0980 c3         1 701       0.068500
     28 S6           2.5740    -0.0020    -1.4810 ss         1 701       0.016200
     29 C6           5.7660    -1.2220    -1.7330 cf         1 701      -0.389100
     30 H2           2.2560     0.4850     2.0090 ha         1 701       0.164000
     31 H3           4.6650     0.5070     1.3120 ha         1 701       0.164000
     32 H8C1         5.9820     1.3320    -2.9290 hc         1 701       0.074033
     33 H8C2         6.9250     1.3500    -1.4330 hc         1 701       0.074033
     34 H8C3         5.3380     2.1290    -1.4870 hc         1 701       0.074033
     35 H6           5.2410    -2.1100    -1.4030 h4         1 701       0.192000
     36 H1           8.2550    -3.5160    -2.4280 hn         1 701       0.453800
     37 H12          5.6660    -3.3610    -3.9690 h1         1 701       0.101700
     38 H131         6.6850    -4.1060    -5.9470 hc         1 701       0.073700
     39 H132         8.0580    -3.1770    -5.2880 hc         1 701       0.073700
     40 H141         9.1440    -5.0890    -4.5220 h1         1 701       0.044200
     41 H142         8.2440    -5.8330    -5.8740 h1         1 701       0.044200
     42 H16          8.3680    -7.8120    -4.4120 h1         1 701       0.072700
     43 H171         7.1850    -8.0820    -1.7450 hc         1 701       0.053033
     44 H172         8.8320    -8.4240    -2.2910 hc         1 701       0.053033
     45 H173         8.3680    -6.7720    -1.8590 hc         1 701       0.053033
     46 H191         7.3010   -10.7070    -2.5870 h1         1 701       0.059950
     47 H192         8.3280    -9.7750    -3.6880 h1         1 701       0.059950
     48 H231         4.2630    -9.5630    -4.5150 h1         1 701       0.059950
     49 H232         4.6830   -10.5750    -3.1250 h1         1 701       0.059950
     50 H201         7.7090   -11.1990    -5.5490 h1         1 701       0.054700
     51 H202         8.2800   -12.2130    -4.2150 h1         1 701       0.054700
     52 H221         4.2670   -11.9980    -5.0460 h1         1 701       0.054700
     53 H222         5.4200   -11.0740    -6.0210 h1         1 701       0.054700
@<TRIPOS>BOND
     1     1     2 1
     2     2     3 2
     3     3     4 1
     4     4     5 2
     5     5     6 1
     6     6     7 1
     7     8     9 2
     8     8    10 2
     9     8    11 1
    10    11    12 1
    11    12    13 1
    12    13    14 1
    13    12    15 1
    14    15    16 2
    15    14    17 1
    16    15    17 1
    17    17    18 1
    18    18    19 1
    19    18    20 1
    20    20    21 2
    21    20    22 1
    22    22    23 1
    23    23    24 1
    24    24    25 1
    25    25    26 1
    26    22    27 1
    27    26    27 1
    28     2    28 1
    29     5    28 1
    30     6    29 2
    31     8    29 1
    32     3    30 1
    33     4    31 1
    34     7    32 1
    35     7    33 1
    36     7    34 1
    37    29    35 1
    38    11    36 1
    39    12    37 1
    40    13    38 1
    41    13    39 1
    42    14    40 1
    43    14    41 1
    44    18    42 1
    45    19    43 1
    46    19    44 1
    47    19    45 1
    48    23    46 1
    49    23    47 1
    50    27    48 1
    51    27    49 1
    52    24    50 1
    53    24    51 1
    54    26    52 1
    55    26    53 1
@<TRIPOS>SUBSTRUCTURE
     1 701         1 TEMP              0 ****  ****    0 ROOT
