@<TRIPOS>MOLECULE
701
   54    55     1     0     0
SMALL
bcc


@<TRIPOS>ATOM
      1 CL1         1.2920   -2.8650    1.8120 cl        1 701      0.046600
      2 C1          2.4830   -2.2800    0.8110 cc        1 701      0.011300
      3 C2          3.3200   -1.2020    1.1410 cd        1 701     -0.178000
      4 C3          4.2320   -0.9240    0.1110 cd        1 701     -0.024000
      5 C4          4.0740   -1.7960   -0.9890 cc        1 701     -0.242900
      6 C9          4.8230   -1.8040   -2.1860 ce        1 701      0.395600
      7 C8          4.4780   -2.8300   -3.1970 c3        1 701     -0.175900
      8 S1          6.7490   -0.6350   -3.6140 s4        1 701      1.697100
      9 O2          6.4760   -1.2310   -4.8120 o         1 701     -0.466400
     10 O1          7.5930    0.4360   -3.5440 o         1 701     -0.466400
     11 N1          8.4980   -2.1240   -3.0780 n3        1 701     -0.985800
     12 C12         8.3040   -3.4340   -3.6790 c3        1 701      0.036500
     13 C13         9.5220   -4.1070   -4.3400 c3        1 701     -0.105400
     14 C14         9.3510   -5.6100   -4.0400 c3        1 701      0.065000
     15 C15         7.7890   -4.5020   -2.6750 c         1 701      0.697500
     16 O3          6.9950   -4.2380   -1.7620 o         1 701     -0.617500
     17 N2          8.4140   -5.7310   -2.9230 n         1 701     -0.416800
     18 C16         7.6860   -6.9760   -2.7640 c3        1 701      0.046700
     19 C17         7.3550   -7.2810   -1.3030 c3        1 701     -0.106100
     20 C18         6.3540   -6.9790   -3.5660 c         1 701      0.637100
     21 O4          5.8170   -5.8860   -3.8710 o         1 701     -0.657100
     22 N3          5.7750   -8.1650   -3.9470 n         1 701     -0.451800
     23 C19         6.2270   -9.4720   -3.5220 c3        1 701      0.052000
     24 C20         6.0550  -10.5420   -4.6140 c3        1 701      0.112400
     25 O5          4.7400  -10.5350   -5.1510 os        1 701     -0.396600
     26 C22         4.3910   -9.2670   -5.6940 c3        1 701      0.112400
     27 C23         4.5000   -8.1550   -4.6430 c3        1 701      0.052000
     28 S6          2.8250   -2.8940   -0.6850 ss        1 701      0.212200
     29 C6          5.8560   -0.8960   -2.4230 c2        1 701     -0.845300
     30 H2          3.2670   -0.6460    2.0830 ha        1 701      0.193000
     31 H3          4.9710   -0.1190    0.1710 ha        1 701      0.172000
     32 H8C1        4.6040   -2.4570   -4.2460 hc        1 701      0.112367
     33 H8C2        5.1600   -3.7240   -3.0660 hc        1 701      0.112367
     34 H8C3        3.4240   -3.1940   -3.0840 hc        1 701      0.112367
     35 H6          6.0360   -0.2320   -1.5380 h4        1 701      0.229000
     36 H1          9.3530   -1.7050   -3.4110 hn        1 701      0.406800
     37 H12         7.4880   -3.3240   -4.4630 h1        1 701      0.121700
     38 H131       10.4880   -3.7370   -3.9160 hc        1 701      0.078200
     39 H132        9.5300   -3.9250   -5.4420 hc        1 701      0.078200
     40 H141       10.3280   -6.0700   -3.7290 h1        1 701      0.070700
     41 H142        8.9730   -6.1490   -4.9520 h1        1 701      0.070700
     42 H16         8.3700   -7.7840   -3.1670 h1        1 701      0.085700
     43 H171        8.2920   -7.3420   -0.6990 hc        1 701      0.065033
     44 H172        6.7020   -6.4830   -0.8700 hc        1 701      0.065033
     45 H173        6.8240   -8.2610   -1.2440 hc        1 701      0.065033
     46 H191        7.3120   -9.4470   -3.2310 h1        1 701      0.063950
     47 H192        5.6250   -9.7850   -2.6190 h1        1 701      0.063950
     48 H231        4.3590   -7.1590   -5.1490 h1        1 701      0.063950
     49 H232        3.6770   -8.2900   -3.8830 h1        1 701      0.063950
     50 H201        6.8030  -10.3920   -5.4370 h1        1 701      0.066200
     51 H202        6.1710  -11.5630   -4.1650 h1        1 701      0.066200
     52 H221        3.3220   -9.3850   -6.0140 h1        1 701      0.066200
     53 H222        5.0380   -9.0430   -6.5820 h1        1 701      0.066200
     54 H121        8.5480   -2.2010   -2.0740 hn        1 701      0.406800
@<TRIPOS>BOND
     1    1    2 1   
     2    2    3 2   
     3    2   28 1   
     4    3    4 1   
     5    3   30 1   
     6    4    5 2   
     7    4   31 1   
     8    5    6 1   
     9    5   28 1   
    10    6    7 1   
    11    6   29 2   
    12    7   32 1   
    13    7   33 1   
    14    7   34 1   
    15    8    9 1   
    16    8   10 1   
    17    8   29 1   
    18   11   12 1   
    19   11   36 1   
    20   11   54 1   
    21   12   13 1   
    22   12   15 1   
    23   12   37 1   
    24   13   14 1   
    25   13   38 1   
    26   13   39 1   
    27   14   17 1   
    28   14   40 1   
    29   14   41 1   
    30   15   16 2   
    31   15   17 1   
    32   17   18 1   
    33   18   19 1   
    34   18   20 1   
    35   18   42 1   
    36   19   43 1   
    37   19   44 1   
    38   19   45 1   
    39   20   21 2   
    40   20   22 1   
    41   22   23 1   
    42   22   27 1   
    43   23   24 1   
    44   23   46 1   
    45   23   47 1   
    46   24   25 1   
    47   24   50 1   
    48   24   51 1   
    49   25   26 1   
    50   26   27 1   
    51   26   52 1   
    52   26   53 1   
    53   27   48 1   
    54   27   49 1   
    55   29   35 1   
@<TRIPOS>SUBSTRUCTURE
     1 701         1 TEMP              0 ****  ****    0 ROOT
