@<TRIPOS>MOLECULE
molecule
   54    56     1     0     0
SMALL
bcc


@<TRIPOS>ATOM
      1 OAA          0.0000     0.0000     0.0000 o          1 702      -0.739200
      2 OAB          2.1520     0.0000     1.2180 o          1 702      -0.739200
      3 OAC          1.7960    -1.3160    -0.6650 o          1 702      -0.739200
      4 CAG          8.6790     9.3200    -6.5960 ca         1 702      -0.168000
      5 CAH          9.2820    10.2650    -5.7860 ca         1 702      -0.136500
      6 CAI          7.8990     8.3260    -6.0360 ca         1 702      -0.136500
      7 CAJ          5.9680    12.0350    -1.2250 ca         1 702      -0.183000
      8 CAK          4.7070    11.4680    -1.2730 ca         1 702      -0.122000
      9 CAL          2.1650     7.6320    -3.7550 ca         1 702      -0.130000
     10 CAM          9.1070    10.2140    -4.4160 ca         1 702      -0.120000
     11 CAN          7.7250     8.2740    -4.6650 ca         1 702      -0.120000
     12 CAO          1.6830     6.6600    -2.8960 ca         1 702      -0.106000
     13 CAP          3.4490     8.1190    -3.5970 ca         1 702      -0.188000
     14 CAQ          7.0770    11.2880    -1.5780 ca         1 702      -0.112000
     15 CAR          4.5530    10.1550    -1.6720 ca         1 702      -0.204000
     16 CAS          3.7670     6.6600    -1.7150 ca         1 702      -0.132000
     17 CAU          1.9550     5.1190    -0.9430 c3         1 702      -0.052100
     18 CAV          1.7370     2.6580    -0.5600 c3         1 702      -0.005400
     19 OAX          5.5160     8.1120    -2.4200 os         1 702      -0.245200
     20 CAY          2.4830     6.1760    -1.8780 ca         1 702      -0.012300
     21 CAZ          8.3280     9.2180    -3.8550 ca         1 702      -0.090300
     22 CBA          4.2530     7.6340    -2.5770 ca         1 702       0.065100
     23 CBB          6.9290     9.9740    -1.9780 ca         1 702      -0.126300
     24 CBC          5.6650     9.4050    -2.0260 ca         1 702       0.167100
     25 CBD          2.0570     1.2730    -1.1240 c3         1 702      -0.375100
     26 PBE          1.2720     1.0880    -2.7590 p5         1 702       1.096700
     27 SBF          1.4200     0.0000     0.0000 s6         1 702       1.282800
     28 HAI          7.4270     7.5860    -6.6700 ha         1 702       0.116500
     29 HAJ          6.0870    13.0650    -0.9120 ha         1 702       0.103000
     30 HAK          3.8390    12.0550    -0.9960 ha         1 702       0.113000
     31 HAL          1.5360     8.0100    -4.5520 ha         1 702       0.113000
     32 HAM          9.5800    10.9540    -3.7820 ha         1 702       0.136000
     33 HAN          7.1150     7.4940    -4.2260 ha         1 702       0.136000
     34 HAO          0.6770     6.2780    -3.0210 ha         1 702       0.156000
     35 HAP          3.8260     8.8800    -4.2700 ha         1 702       0.116000
     36 HAQ          8.0640    11.7340    -1.5400 ha         1 702       0.112000
     37 HAR          3.5650     9.7120    -1.7090 ha         1 702       0.157000
     38 HAS          4.3930     6.2800    -0.9170 ha         1 702       0.142000
     39 HAU          0.8820     5.2290    -0.8420 hc         1 702       0.029200
     40 HAUA         2.4220     5.2290     0.0280 hc         1 702       0.029200
     41 HAV          0.6640     2.7690    -0.4600 hc         1 702       0.009200
     42 HAVA         2.2040     2.7690     0.4120 hc         1 702       0.009200
     43 HBD          3.1300     1.1620    -1.2240 h1         1 702       0.071700
     44 HAG          8.8160     9.3610    -7.6690 ha         1 702       0.107000
     45 CAT          2.2740     3.7330    -1.5090 c3         1 702      -0.104400
     46 OAD         -0.3230     1.2520    -2.6100 o          1 702      -0.870833
     47 OAE          1.6080    -0.3700    -3.3540 o          1 702      -0.870833
     48 OAF          1.7910     2.1260    -3.6760 o          1 702      -0.870833
     49 CAW          8.1380     9.1620    -2.3620 c3         1 702       0.027200
     50 HAH          9.8930    11.0450    -6.2250 ha         1 702       0.116500
     51 HAT          1.8070     3.6230    -2.4800 hc         1 702       0.090200
     52 HATA         3.3470     3.6230    -1.6090 hc         1 702       0.090200
     53 HAW          9.0150     9.5660    -1.8710 hc         1 702       0.051200
     54 HAWA         7.9940     8.1330    -2.0540 hc         1 702       0.051200
@<TRIPOS>BOND
     1     1    27 1
     2     2    27 1
     3     3    27 1
     4    46    26 1
     5    47    26 1
     6    48    26 1
     7     4     5 ar
     8     4     6 ar
     9     5    10 ar
    10     6    11 ar
    11     7     8 ar
    12     7    14 ar
    13     8    15 ar
    14     9    12 ar
    15     9    13 ar
    16    10    21 ar
    17    11    21 ar
    18    12    20 ar
    19    13    22 ar
    20    14    23 ar
    21    15    24 ar
    22    16    20 ar
    23    16    22 ar
    24    45    17 1
    25    45    18 1
    26    17    20 1
    27    18    25 1
    28    49    21 1
    29    49    23 1
    30    19    22 1
    31    19    24 1
    32    23    24 ar
    33    25    26 1
    34    25    27 1
    35     4    44 1
    36     5    50 1
    37     6    28 1
    38     7    29 1
    39     8    30 1
    40     9    31 1
    41    10    32 1
    42    11    33 1
    43    12    34 1
    44    13    35 1
    45    14    36 1
    46    15    37 1
    47    16    38 1
    48    45    51 1
    49    45    52 1
    50    17    39 1
    51    17    40 1
    52    18    41 1
    53    18    42 1
    54    49    53 1
    55    49    54 1
    56    25    43 1
@<TRIPOS>SUBSTRUCTURE
     1 702         1 TEMP              0 ****  ****    0 ROOT
