@<TRIPOS>MOLECULE
molecule
   51    55     1     0     0
SMALL
bcc


@<TRIPOS>ATOM
      1 C1           0.0000     0.0000     0.0000 ca         1 703      -0.131000
      2 C2           1.3840     0.0000     0.0000 ca         1 703      -0.063000
      3 C3           2.0810     0.0000     1.1950 ca         1 703      -0.152200
      4 C4           1.4010    -0.0050     2.3940 ca         1 703      -0.058000
      5 C5           0.0050     0.0010     2.4010 ca         1 703      -0.011000
      6 C6          -0.6930     0.0010     1.1920 ca         1 703      -0.066000
      7 N7           3.5610    -0.0010     1.1860 no         1 703       0.293200
      8 O8           4.1770     0.0050     2.2370 o          1 703      -0.200500
      9 O9           4.1640    -0.0020     0.1280 o          1 703      -0.200500
     10 C10         -0.7320     0.0030     3.6830 cc         1 703       0.061900
     11 S11         -0.3590    -0.8850     5.1850 ss         1 703      -0.091800
     12 C12         -1.7220    -0.3080     6.1640 cc         1 703      -0.049100
     13 C13         -2.4100     0.5480     5.2910 cd         1 703       0.006700
     14 C14         -1.8640     0.6890     4.0170 cd         1 703      -0.148000
     15 N15         -3.5030     1.0330     6.0220 n          1 703      -0.002200
     16 C16         -3.4730     0.4880     7.2920 cd         1 703      -0.221900
     17 C17         -2.3760    -0.3410     7.3860 cc         1 703       0.016000
     18 C18         -4.5760     1.8390     5.9450 cs         1 703       0.471200
     19 N19         -5.2360     1.8300     7.1170 n          1 703      -0.428400
     20 C20         -4.5970     1.0140     7.9810 c          1 703       0.728100
     21 S21         -5.0360     2.7400     4.5640 s          1 703      -0.519400
     22 O22         -4.9230     0.7750     9.1290 o          1 703      -0.552500
     23 C23         -6.4550     2.5880     7.4100 c3         1 703       0.113000
     24 C24         -7.6800     1.7420     7.0540 c3         1 703      -0.111400
     25 C25         -8.9530     2.5340     7.3600 c3         1 703       0.139800
     26 N26        -10.1280     1.7220     7.0180 n3         1 703      -0.666600
     27 C27        -11.2990     2.4270     7.5540 c3         1 703       0.094800
     28 C28        -12.5430     1.5550     7.3860 c3         1 703       0.125400
     29 O29        -12.3960     0.3550     8.1470 os         1 703      -0.404600
     30 C30        -11.2860    -0.3560     7.6010 c3         1 703       0.125400
     31 C31        -10.0100     0.4680     7.7740 c3         1 703       0.094800
     32 H1          -0.5400    -0.0000    -0.9390 ha         1 703       0.155000
     33 H2           1.9240     0.0010    -0.9390 ha         1 703       0.170000
     34 H4           1.9480    -0.0050     3.3290 ha         1 703       0.173000
     35 H6          -1.7760     0.0040     1.1910 ha         1 703       0.154000
     36 H14         -2.3360     1.3420     3.2930 ha         1 703       0.172000
     37 H17         -2.1430    -0.9980     8.2150 ha         1 703       0.177000
     38 H231        -6.4630     3.5000     6.8240 h1         1 703       0.084200
     39 H232        -6.4810     2.8360     8.4640 h1         1 703       0.084200
     40 H241        -7.6530     1.4940     6.0000 hc         1 703       0.067200
     41 H242        -7.6710     0.8310     7.6390 hc         1 703       0.067200
     42 H251        -8.9790     2.7810     8.4140 h1         1 703       0.043200
     43 H252        -8.9610     3.4450     6.7740 h1         1 703       0.043200
     44 H271       -11.4370     3.3570     7.0140 h1         1 703       0.048700
     45 H272       -11.1440     2.6340     8.6060 h1         1 703       0.048700
     46 H281       -12.6670     1.3040     6.3400 h1         1 703       0.055450
     47 H282       -13.4120     2.0980     7.7370 h1         1 703       0.055450
     48 H301       -11.1760    -1.3010     8.1190 h1         1 703       0.055450
     49 H302       -11.4580    -0.5350     6.5470 h1         1 703       0.055450
     50 H311        -9.8660     0.6930     8.8240 h1         1 703       0.048700
     51 H312        -9.1640    -0.0980     7.4020 h1         1 703       0.048700
@<TRIPOS>BOND
     1     1     2 ar
     2     1     6 ar
     3     1    32 1
     4     2     3 ar
     5     2    33 1
     6     3     4 ar
     7     3     7 1
     8     4     5 ar
     9     4    34 1
    10     5     6 ar
    11     5    10 1
    12     6    35 1
    13     7     8 1
    14     7     9 1
    15    10    11 1
    16    10    14 2
    17    11    12 1
    18    12    13 2
    19    12    17 1
    20    13    14 1
    21    13    15 1
    22    14    36 1
    23    15    16 1
    24    15    18 1
    25    16    17 2
    26    16    20 1
    27    17    37 1
    28    18    19 1
    29    18    21 2
    30    19    20 1
    31    19    23 1
    32    20    22 2
    33    23    24 1
    34    23    38 1
    35    23    39 1
    36    24    25 1
    37    24    40 1
    38    24    41 1
    39    25    26 1
    40    25    42 1
    41    25    43 1
    42    26    27 1
    43    26    31 1
    44    27    28 1
    45    27    44 1
    46    27    45 1
    47    28    29 1
    48    28    46 1
    49    28    47 1
    50    29    30 1
    51    30    31 1
    52    30    48 1
    53    30    49 1
    54    31    50 1
    55    31    51 1
@<TRIPOS>SUBSTRUCTURE
     1 703         1 TEMP              0 ****  ****    0 ROOT
