@<TRIPOS>MOLECULE
704
   41    43     1     0     0
SMALL
bcc


@<TRIPOS>ATOM
      1 Cl1          0.0000     0.0000     0.0000 cl         1 704      -0.013400
      2 C1           9.6320     1.4320     3.4340 c3         1 704      -0.020100
      3 C2           9.3060    -0.0050     3.8450 c3         1 704       0.058500
      4 C4          10.4930    -0.6070     4.5530 c          1 704       0.579100
      5 O5          10.3830    -0.9980     5.6950 o          1 704      -0.643100
      6 N6          11.6760    -0.7120     3.9150 n          1 704      -0.151800
      7 C7          11.8070    -0.2400     2.5350 c3         1 704       0.082300
      8 C8          12.8290    -1.2970     4.6040 c3         1 704       0.082300
      9 N9           8.1490    -0.0050     4.7450 nu         1 704      -0.464900
     10 C10          6.8650    -0.0040     4.2220 ca         1 704       0.535200
     11 C11          5.7530    -0.0040     5.0720 ca         1 704      -0.229700
     12 C12          4.4910    -0.0030     4.5070 ca         1 704       0.469200
     13 N13          4.3710    -0.0010     3.1880 nb         1 704      -0.668000
     14 C14          5.4430    -0.0010     2.4050 ca         1 704       0.752800
     15 N15          6.6720     0.0020     2.9090 nb         1 704      -0.708000
     16 C16          5.2650     0.0000     0.9370 cc         1 704      -0.218000
     17 C17          6.2470     0.0000     0.0000 cd         1 704      -0.219100
     18 N18          5.6940     0.0010    -1.2460 na         1 704       0.273900
     19 C20          4.3210     0.0020    -1.1610 ca         1 704       0.215800
     20 C21          3.9880    -0.0050     0.2060 ca         1 704      -0.172100
     21 C22          2.6470    -0.0050     0.5880 ca         1 704      -0.003000
     22 C23          1.6870     0.0010    -0.4080 ca         1 704      -0.188900
     23 C24          2.0860     0.0070    -1.7370 ca         1 704       0.418200
     24 N25          3.3580     0.0030    -2.0740 nb         1 704      -0.567000
     25 H1           9.7360     1.4850     2.3570 hc         1 704       0.016700
     26 H2           8.8320     2.0890     3.7520 hc         1 704       0.016700
     27 H3          10.5600     1.7400     3.9010 hc         1 704       0.016700
     28 H4           9.0770    -0.5900     2.9620 h1         1 704       0.065700
     29 H5          10.8950    -0.4540     1.9920 h1         1 704       0.013700
     30 H6          12.6380    -0.7460     2.0580 h1         1 704       0.013700
     31 H7          11.9860     0.8290     2.5340 h1         1 704       0.013700
     32 H8          12.9530    -0.8220     5.5690 h1         1 704       0.013700
     33 H9          13.7210    -1.1430     4.0090 h1         1 704       0.013700
     34 H10         12.6670    -2.3590     4.7410 h1         1 704       0.013700
     35 H11          8.2860     0.0120     5.7360 hn         1 704       0.328800
     36 H12          3.6090    -0.0030     5.1360 h4         1 704      -0.006900
     37 H13          7.3090    -0.0000     0.2110 h4         1 704       0.152000
     38 H14          6.2140     0.0010    -2.1010 hn         1 704       0.119700
     39 H15          2.3740     0.2470     1.6060 ha         1 704       0.140000
     40 H16          1.3320     0.0140    -2.5150 h4         1 704      -0.012900
     41 F27          5.9090    -0.0060     6.4140 f          1 704      -0.115900
@<TRIPOS>BOND
     1     1    22 1   
     2     2     3 1   
     3     2    25 1   
     4     2    26 1   
     5     2    27 1   
     6     3     4 1   
     7     3     9 1   
     8     3    28 1   
     9     4     5 2   
    10     4     6 1   
    11     6     7 1   
    12     6     8 1   
    13     7    29 1   
    14     7    30 1   
    15     7    31 1   
    16     8    32 1   
    17     8    33 1   
    18     8    34 1   
    19     9    10 1   
    20     9    35 1   
    21    10    11 ar  
    22    10    15 ar  
    23    11    12 ar  
    24    11    41 1   
    25    12    13 ar  
    26    12    36 1   
    27    13    14 ar  
    28    14    15 ar  
    29    14    16 1   
    30    16    17 2   
    31    16    20 1   
    32    17    18 1   
    33    17    37 1   
    34    18    19 1   
    35    18    38 1   
    36    19    20 ar  
    37    19    24 ar  
    38    20    21 ar  
    39    21    22 ar  
    40    21    39 1   
    41    22    23 ar  
    42    23    24 ar  
    43    23    40 1   
@<TRIPOS>SUBSTRUCTURE
     1 704         1 TEMP              0 ****  ****    0 ROOT
