@<TRIPOS>MOLECULE
molecule
   41    43     1     0     0
SMALL
bcc


@<TRIPOS>ATOM
      1 Cl1          0.0000     0.0000     0.0000 cl         1 704      -0.099400
      2 C1           9.6320     1.4320     3.4340 c3         1 704      -0.109100
      3 C2           9.3060    -0.0050     3.8450 c3         1 704       0.172500
      4 C4          10.4930    -0.6070     4.5530 c          1 704       0.653100
      5 O5          10.3830    -0.9980     5.6950 o          1 704      -0.603100
      6 N6          11.6760    -0.7120     3.9150 n          1 704      -0.493800
      7 C7          11.8070    -0.2400     2.5350 c3         1 704       0.097800
      8 C8          12.8290    -1.2970     4.6040 c3         1 704       0.097800
      9 N9           8.1490    -0.0050     4.7450 nu         1 704      -0.887900
     10 C10          6.8650    -0.0040     4.2220 ca         1 704       0.715200
     11 C11          5.7530    -0.0040     5.0720 ca         1 704      -0.195700
     12 C12          4.4910    -0.0030     4.5070 ca         1 704       0.466200
     13 N13          4.3710    -0.0010     3.1880 nb         1 704      -0.761000
     14 C14          5.4430    -0.0010     2.4050 ca         1 704       0.814800
     15 N15          6.6720     0.0020     2.9090 nb         1 704      -0.813000
     16 C16          5.2650     0.0000     0.9370 cc         1 704      -0.210000
     17 C17          6.2470     0.0000     0.0000 cd         1 704      -0.038100
     18 N18          5.6940     0.0010    -1.2460 na         1 704      -0.272100
     19 C20          4.3210     0.0020    -1.1610 ca         1 704       0.456800
     20 C21          3.9880    -0.0050     0.2060 ca         1 704      -0.180100
     21 C22          2.6470    -0.0050     0.5880 ca         1 704      -0.025000
     22 C23          1.6870     0.0010    -0.4080 ca         1 704      -0.131900
     23 C24          2.0860     0.0070    -1.7370 ca         1 704       0.457200
     24 N25          3.3580     0.0030    -2.0740 nb         1 704      -0.702000
     25 H1           9.7360     1.4850     2.3570 hc         1 704       0.048367
     26 H2           8.8320     2.0890     3.7520 hc         1 704       0.048367
     27 H3          10.5600     1.7400     3.9010 hc         1 704       0.048367
     28 H4           9.0770    -0.5900     2.9620 h1         1 704       0.091700
     29 H5          10.8950    -0.4540     1.9920 h1         1 704       0.043367
     30 H6          12.6380    -0.7460     2.0580 h1         1 704       0.043367
     31 H7          11.9860     0.8290     2.5340 h1         1 704       0.043367
     32 H8          12.9530    -0.8220     5.5690 h1         1 704       0.043367
     33 H9          13.7210    -1.1430     4.0090 h1         1 704       0.043367
     34 H10         12.6670    -2.3590     4.7410 h1         1 704       0.043367
     35 H11          8.2860     0.0120     5.7360 hn         1 704       0.480800
     36 H12          3.6090    -0.0030     5.1360 h4         1 704       0.042100
     37 H13          7.3090    -0.0000     0.2110 h4         1 704       0.186000
     38 H14          6.2140     0.0010    -2.1010 hn         1 704       0.309700
     39 H15          2.3740     0.2470     1.6060 ha         1 704       0.175000
     40 H16          1.3320     0.0140    -2.5150 h4         1 704       0.037100
     41 F27          5.9090    -0.0060     6.4140 f          1 704      -0.133900
@<TRIPOS>BOND
     1    18    19 1
     2    18    17 1
     3    24    19 ar
     4    24    23 ar
     5    19    20 ar
     6    17    16 2
     7    23    22 ar
     8    20    16 1
     9    20    21 ar
    10    16    14 1
    11    22    21 ar
    12    22     1 1
    13    13    14 ar
    14    13    12 ar
    15    14    15 ar
    16    12    11 ar
    17    15    10 ar
    18    11    10 ar
    19    11    41 1
    20    10     9 1
    21     7     6 1
    22     5     4 2
    23     6     4 1
    24     6     8 1
    25     9     3 1
    26     4     3 1
    27     3     2 1
    28     2    25 1
    29     2    26 1
    30     2    27 1
    31     3    28 1
    32     7    29 1
    33     7    30 1
    34     7    31 1
    35     8    32 1
    36     8    33 1
    37     8    34 1
    38     9    35 1
    39    12    36 1
    40    17    37 1
    41    18    38 1
    42    21    39 1
    43    23    40 1
@<TRIPOS>SUBSTRUCTURE
     1 704         1 TEMP              0 ****  ****    0 ROOT
