@<TRIPOS>MOLECULE
molecule
   70    74     1     0     0
SMALL
bcc


@<TRIPOS>ATOM
      1 F30          0.0000     0.0000     0.0000 f          1 705      -0.137900
      2 C29          1.3510     0.0000     0.0000 ca         1 705       0.138900
      3 C26          2.0410     0.0000     1.2010 ca         1 705      -0.162500
      4 C25          3.4210     0.0010     1.2060 ca         1 705      -0.095000
      5 C28          2.0420    -0.0050    -1.2000 ca         1 705      -0.162500
      6 C27          3.4220    -0.0050    -1.2040 ca         1 705      -0.095000
      7 C24          4.1200     0.0010     0.0020 cp         1 705      -0.052000
      8 C22          5.6030     0.0010     0.0020 cp         1 705      -0.036000
      9 C21          6.2970     0.0020    -1.2010 ca         1 705      -0.098000
     10 C23          6.3010     0.0070     1.2120 ca         1 705      -0.129000
     11 C33          7.6820     0.0090     1.2190 ca         1 705       0.063100
     12 O34          8.3550     0.0150     2.4010 oh         1 705      -0.501100
     13 C31          8.3880     0.0030     0.0170 ca         1 705       0.156100
     14 O32          9.7450     0.0050     0.0260 oh         1 705      -0.473100
     15 C20          7.6940     0.0030    -1.1990 ca         1 705      -0.151600
     16 C18          8.4360     0.0040    -2.4740 c          1 705       0.672700
     17 O19          9.6520     0.0050    -2.4710 o          1 705      -0.579100
     18 N17          7.7660     0.0040    -3.6450 ns         1 705      -0.587900
     19 C16          8.5030     0.0050    -4.9100 c3         1 705       0.147200
     20 C15          7.5270     0.0050    -6.0590 c2         1 705      -0.176200
     21 C14          7.5990     0.9350    -6.9790 c2         1 705      -0.171200
     22 C6           6.6240     0.9350    -8.1270 c3         1 705       0.161300
     23 C4           5.8970     2.2940    -8.2170 c3         1 705       0.095100
     24 O5           6.5080     3.1240    -9.2080 oh         1 705      -0.569800
     25 C2           4.4560     1.9240    -8.6330 c3         1 705       0.092100
     26 O3           4.1320     2.5130    -9.8940 oh         1 705      -0.558800
     27 O13          5.5750    -0.0300    -7.8960 os         1 705      -0.420600
     28 C1           4.4830     0.3840    -8.7460 c3         1 705       0.258800
     29 N10          3.2200    -0.1850    -8.2680 na         1 705      -0.254000
     30 C9           2.9710    -0.6520    -7.0130 cc         1 705       0.421700
     31 C11          2.0700    -0.3380    -9.0010 ca         1 705       0.479800
     32 N40          1.7110    -0.0670   -10.2510 nb         1 705      -0.790000
     33 C39          0.4930    -0.3380   -10.6730 ca         1 705       0.742900
     34 N38         -0.4210    -0.8840    -9.8930 nb         1 705      -0.834000
     35 C35         -0.1540    -1.1900    -8.6270 ca         1 705       0.786200
     36 C12          1.1320    -0.9200    -8.1310 ca         1 705      -0.213200
     37 N8           1.7450    -1.0850    -6.9340 nd         1 705      -0.588100
     38 N7          -1.1200    -1.7620    -7.8180 nu         1 705      -0.891900
     39 C36         -2.4560    -2.0360    -8.3530 c3         1 705       0.235800
     40 C37         -3.3240    -2.6640    -7.2600 c3         1 705      -0.105400
     41 C41         -4.7190    -2.9510    -7.8190 c3         1 705      -0.088100
     42 H26          1.4970    -0.0010     2.1380 ha         1 705       0.150000
     43 H25          3.9600     0.0030     2.1460 ha         1 705       0.137000
     44 H28          1.4980    -0.0100    -2.1380 ha         1 705       0.150000
     45 H27          3.9610    -0.0070    -2.1430 ha         1 705       0.137000
     46 H21          5.7560     0.0020    -2.1400 ha         1 705       0.134000
     47 H23          5.7560     0.0130     2.1490 ha         1 705       0.146000
     48 HO34         8.2320    -0.8120     2.8370 ho         1 705       0.417000
     49 HO32        10.0580    -0.8360     0.3130 ho         1 705       0.425000
     50 HN17         6.7650    -0.0090    -3.6480 hn         1 705       0.312500
     51 H16          9.1270    -0.8790    -4.9660 h1         1 705       0.061700
     52 H16A         9.1250     0.8900    -4.9640 h1         1 705       0.061700
     53 H15          6.7670    -0.7640    -6.1240 ha         1 705       0.147000
     54 H14          8.3600     1.7040    -6.9140 ha         1 705       0.144000
     55 H6           7.1320     0.7200    -9.0600 h1         1 705       0.090700
     56 H4           5.8960     2.7850    -7.2510 h1         1 705       0.052700
     57 HO5          6.7780     3.9370    -8.8140 ho         1 705       0.405000
     58 H2           3.7520     2.2340    -7.8700 h1         1 705       0.057700
     59 HO3          3.5710     3.2590    -9.7580 ho         1 705       0.410000
     60 H1           4.6730     0.0880    -9.7700 h2         1 705       0.113700
     61 H9           3.6870    -0.6630    -6.2000 h5         1 705       0.081800
     62 H39          0.2320    -0.1060   -11.6980 h5         1 705       0.062100
     63 HN7         -0.9060    -1.9880    -6.8670 hn         1 705       0.462800
     64 H36         -2.3760    -2.7210    -9.1880 h1         1 705       0.054200
     65 H36A        -2.9080    -1.1100    -8.6860 h1         1 705       0.054200
     66 H37         -2.8710    -3.5900    -6.9260 hc         1 705       0.046200
     67 H37A        -3.4040    -1.9790    -6.4240 hc         1 705       0.046200
     68 H41         -5.3330    -3.3960    -7.0450 hc         1 705       0.038033
     69 H41A        -4.6400    -3.6340    -8.6550 hc         1 705       0.038033
     70 H41B        -5.1730    -2.0250    -8.1510 hc         1 705       0.038033
@<TRIPOS>BOND
     1     1     2 1
     2     2     3 ar
     3     2     5 ar
     4     3     4 ar
     5     4     7 ar
     6     5     6 ar
     7     6     7 ar
     8     7     8 1
     9     8     9 ar
    10     8    10 ar
    11     9    15 ar
    12    10    11 ar
    13    11    12 1
    14    11    13 ar
    15    13    14 1
    16    13    15 ar
    17    15    16 1
    18    16    17 2
    19    16    18 1
    20    18    19 1
    21    19    20 1
    22    20    21 2
    23    21    22 1
    24    22    23 1
    25    22    27 1
    26    23    24 1
    27    23    25 1
    28    25    26 1
    29    25    28 1
    30    27    28 1
    31    28    29 1
    32    29    30 1
    33    29    31 1
    34    30    37 2
    35    31    32 ar
    36    31    36 ar
    37    32    33 ar
    38    33    34 ar
    39    34    35 ar
    40    35    36 ar
    41    35    38 1
    42    36    37 1
    43    38    39 1
    44    39    40 1
    45    40    41 1
    46     3    42 1
    47     4    43 1
    48     5    44 1
    49     6    45 1
    50     9    46 1
    51    10    47 1
    52    12    48 1
    53    14    49 1
    54    18    50 1
    55    19    51 1
    56    19    52 1
    57    20    53 1
    58    21    54 1
    59    22    55 1
    60    23    56 1
    61    24    57 1
    62    25    58 1
    63    26    59 1
    64    28    60 1
    65    30    61 1
    66    33    62 1
    67    38    63 1
    68    39    64 1
    69    39    65 1
    70    40    66 1
    71    40    67 1
    72    41    68 1
    73    41    69 1
    74    41    70 1
@<TRIPOS>SUBSTRUCTURE
     1 705         1 TEMP              0 ****  ****    0 ROOT
