@<TRIPOS>MOLECULE
705
   70    76     1     0     0
SMALL
bcc


@<TRIPOS>ATOM
      1 F30          0.0000     0.0000     0.0000 f          1 705      -0.093000
      2 C29          1.3510     0.0000     0.0000 ca         1 705       0.071000
      3 C26          2.0410     0.0000     1.2010 ca         1 705      -0.126500
      4 C25          3.4210     0.0010     1.2060 ca         1 705      -0.075500
      5 C28          2.0420    -0.0050    -1.2000 ca         1 705      -0.126500
      6 C27          3.4220    -0.0050    -1.2040 ca         1 705      -0.075500
      7 C24          4.1200     0.0010     0.0020 cp         1 705      -0.043000
      8 C22          5.6030     0.0010     0.0020 cq         1 705      -0.038000
      9 C21          6.2970     0.0020    -1.2010 ca         1 705      -0.080000
     10 C23          6.3010     0.0070     1.2120 ca         1 705      -0.107000
     11 C33          7.6820     0.0090     1.2190 ca         1 705       0.020000
     12 O34          8.3550     0.0150     2.4010 oh         1 705      -0.248000
     13 C31          8.3880     0.0030     0.0170 ca         1 705       0.130000
     14 O32          9.7450     0.0050     0.0260 oh         1 705      -0.215000
     15 C20          7.6940     0.0030    -1.1990 ca         1 705      -0.151000
     16 C18          8.4360     0.0040    -2.4740 c2         1 705       0.275000
     17 O19          9.6520     0.0050    -2.4710 o          1 705      -0.393000
     18 N17          7.7660     0.0040    -3.6450 ns         1 705      -0.069000
     19 C16          8.5030     0.0050    -4.9100 DU         1 705       0.106000
     20 C15          7.5270     0.0050    -6.0590 c2         1 705      -0.117000
     21 C14          7.5990     0.9350    -6.9790 c2         1 705      -0.143000
     22 C6           6.6240     0.9350    -8.1270 DU         1 705       0.119000
     23 C4           5.8970     2.2940    -8.2170 c3         1 705       0.000000
     24 O5           6.5080     3.1240    -9.2080 oh         1 705      -0.278000
     25 C2           4.4560     1.9240    -8.6330 c3         1 705       0.015000
     26 O3           4.1320     2.5130    -9.8940 oh         1 705      -0.267000
     27 O13          5.5750    -0.0300    -7.8960 os         1 705      -0.250000
     28 C1           4.4830     0.3840    -8.7460 c3         1 705       0.060000
     29 N10          3.2200    -0.1850    -8.2680 na         1 705       0.288000
     30 C9           2.9710    -0.6520    -7.0130 c2         1 705      -0.210000
     31 C11          2.0700    -0.3380    -9.0010 c2         1 705      -0.118000
     32 N40          1.7110    -0.0670   -10.2510 n2         1 705      -0.152000
     33 C39          0.4930    -0.3380   -10.6730 c2         1 705       0.029000
     34 N38         -0.4210    -0.8840    -9.8930 n2         1 705      -0.218000
     35 C35         -0.1540    -1.1900    -8.6270 c2         1 705       0.083000
     36 C12          1.1320    -0.9200    -8.1310 c2         1 705      -0.252000
     37 N8           1.7450    -1.0850    -6.9340 n2         1 705      -0.071000
     38 N7          -1.1200    -1.7620    -7.8180 nu         1 705       0.086000
     39 C36         -2.4560    -2.0360    -8.3530 c3         1 705      -0.081000
     40 C37         -3.3240    -2.6640    -7.2600 c3         1 705      -0.120000
     41 C41         -4.7190    -2.9510    -7.8190 c3         1 705      -0.105000
     42 H26          1.4970    -0.0010     2.1380 ha         1 705       0.121500
     43 H25          3.9600     0.0030     2.1460 ha         1 705       0.113000
     44 H28          1.4980    -0.0100    -2.1380 ha         1 705       0.121500
     45 H27          3.9610    -0.0070    -2.1430 ha         1 705       0.113000
     46 H21          5.7560     0.0020    -2.1400 ha         1 705       0.115000
     47 H23          5.7560     0.0120     2.1490 ha         1 705       0.122000
     48 HO34         8.3270    -0.8470     2.7830 ho         1 705       0.209000
     49 HO32        10.0560     0.8410     0.3320 ho         1 705       0.211000
     50 HN17         6.7660    -0.0140    -3.6480 hn         1 705       0.108000
     51 H16          9.1250     0.8900    -4.9640 ha         1 705       0.070000
     52 H16A         9.1270    -0.8790    -4.9650 ha         1 705       0.070000
     53 H15          8.5500    -0.3460    -6.1250 DU         1 705       0.020000
     54 H14          7.6700     0.2830    -7.8410 DU         1 705       0.063000
     55 H6           7.1320     0.7200    -9.0600 ha         1 705       0.081000
     56 H4           5.8960     2.7850    -7.2510 h1         1 705       0.068000
     57 HO5          6.8330     3.9110    -8.8020 ho         1 705       0.190000
     58 H2           3.7520     2.2340    -7.8700 h1         1 705       0.060000
     59 HO3          3.5740     3.2610    -9.7580 ho         1 705       0.193000
     60 H1           4.6730     0.0880    -9.7700 h2         1 705       0.110000
     61 H9           3.6870    -0.6630    -6.2000 h5         1 705       0.168000
     62 H39          0.2320    -0.1060   -11.6980 h5         1 705       0.133000
     63 HN7         -0.9060    -1.9880    -6.8670 hn         1 705       0.104000
     64 H36         -2.3760    -2.7210    -9.1880 h1         1 705       0.067500
     65 H36A        -2.9080    -1.1100    -8.6860 h1         1 705       0.067500
     66 H37         -2.8710    -3.5900    -6.9260 hc         1 705       0.055500
     67 H37A        -3.4040    -1.9790    -6.4240 hc         1 705       0.055500
     68 H41         -5.1720    -2.0250    -8.1530 hc         1 705       0.043333
     69 H41A        -4.6400    -3.6360    -8.6540 hc         1 705       0.043333
     70 H41B        -5.3340    -3.3950    -7.0450 hc         1 705       0.043333
@<TRIPOS>BOND
     1     1     2 1   
     2     2     3 1   
     3     2     5 1   
     4     3     4 1   
     5     3    42 1   
     6     4     7 1   
     7     4    43 1   
     8     5     6 1   
     9     5    44 1   
    10     6     7 1   
    11     6    45 1   
    12     7     8 1   
    13     8     9 1   
    14     8    10 1   
    15     9    15 1   
    16     9    46 1   
    17    10    11 1   
    18    10    47 1   
    19    11    12 1   
    20    11    13 1   
    21    12    48 1   
    22    13    14 1   
    23    13    15 1   
    24    14    49 1   
    25    15    16 1   
    26    16    17 1   
    27    16    18 1   
    28    18    19 1   
    29    18    50 1   
    30    19    20 1   
    31    19    51 1   
    32    19    52 1   
    33    19    53 1   
    34    20    21 1   
    35    20    53 1   
    36    21    22 1   
    37    21    54 1   
    38    22    23 1   
    39    22    27 1   
    40    22    54 1   
    41    22    55 1   
    42    23    24 1   
    43    23    25 1   
    44    23    56 1   
    45    24    57 1   
    46    25    26 1   
    47    25    28 1   
    48    25    58 1   
    49    26    59 1   
    50    27    28 1   
    51    28    29 1   
    52    28    60 1   
    53    29    30 1   
    54    29    31 1   
    55    30    37 1   
    56    30    61 1   
    57    31    32 1   
    58    31    36 1   
    59    32    33 1   
    60    33    34 1   
    61    33    62 1   
    62    34    35 1   
    63    35    36 1   
    64    35    38 1   
    65    36    37 1   
    66    38    39 1   
    67    38    63 1   
    68    39    40 1   
    69    39    64 1   
    70    39    65 1   
    71    40    41 1   
    72    40    66 1   
    73    40    67 1   
    74    41    68 1   
    75    41    69 1   
    76    41    70 1   
@<TRIPOS>SUBSTRUCTURE
     1 705         1 TEMP              0 ****  ****    0 ROOT
