@<TRIPOS>MOLECULE
molecule
   51    54     1     0     0
SMALL
bcc


@<TRIPOS>ATOM
      1 C2           0.0000     0.0000     0.0000 c3         1 706      -0.077100
      2 C1           1.5300     0.0000     0.0000 c3         1 706      -0.035700
      3 C3           2.0620    -1.2110    -0.7670 c3         1 706      -0.077100
      4 C28          2.0660     0.0000     1.4420 c3         1 706       0.167800
      5 N27          2.8380     1.2390     1.5640 nu         1 706      -0.679600
      6 C26          2.8040     1.9470     0.3620 ca         1 706       0.112600
      7 C22          3.3970     3.1670     0.0380 ca         1 706      -0.180000
      8 C25          2.0580     1.2820    -0.6040 ca         1 706      -0.149300
      9 C23          1.9020     1.8170    -1.8680 ca         1 706      -0.071000
     10 C24          2.4910     3.0250    -2.1910 ca         1 706      -0.150000
     11 C13          3.2400     3.7050    -1.2290 ca         1 706       0.075600
     12 N12          3.8380     4.9290    -1.5470 ns         1 706      -0.469100
     13 C10          3.2330     5.7710    -2.4080 c          1 706       0.700700
     14 O11          2.1250     5.5100    -2.8350 o          1 706      -0.621100
     15 C8           3.9150     7.0070    -2.8320 ca         1 706      -0.361900
     16 C9           5.2350     7.2610    -2.4440 ca         1 706      -0.020000
     17 C4           5.8290     8.4370    -2.8690 ca         1 706      -0.336300
     18 C5           5.1110     9.3180    -3.6560 ca         1 706       0.502200
     19 N6           3.8670     9.0610    -4.0100 nb         1 706      -0.775000
     20 C7           3.2510     7.9500    -3.6370 ca         1 706       0.756200
     21 N14          1.9490     7.7180    -4.0350 nu         1 706      -0.897900
     22 C15          1.2140     8.7490    -4.7740 c3         1 706       0.280100
     23 C16         -0.1730     8.2500    -5.0880 ca         1 706      -0.076300
     24 C17         -1.2220     8.4690    -4.2080 ca         1 706      -0.236800
     25 C18         -2.4810     7.9980    -4.5290 ca         1 706       0.417700
     26 N19         -2.6890     7.3460    -5.6560 nb         1 706      -0.686000
     27 C20         -1.7150     7.1190    -6.5170 ca         1 706       0.417700
     28 C21         -0.4320     7.5650    -6.2650 ca         1 706      -0.236800
     29 H2          -0.3610     0.9000     0.4820 hc         1 706       0.038533
     30 H2A         -0.3610    -0.8680     0.5390 hc         1 706       0.038533
     31 H2B         -0.3610    -0.0330    -1.0210 hc         1 706       0.038533
     32 H3           1.8120    -2.1180    -0.2300 hc         1 706       0.038533
     33 H3A          3.1390    -1.1330    -0.8630 hc         1 706       0.038533
     34 H3B          1.6140    -1.2400    -1.7530 hc         1 706       0.038533
     35 H28          1.2360     0.0190     2.1380 h1         1 706       0.056700
     36 H28A         2.7200    -0.8510     1.5860 h1         1 706       0.056700
     37 HN27         3.7860     1.0200     1.7960 hn         1 706       0.369800
     38 H22          3.9800     3.6990     0.7810 ha         1 706       0.133000
     39 H23          1.3190     1.2860    -2.6110 ha         1 706       0.134000
     40 H24          2.3670     3.4450    -3.1820 ha         1 706       0.161000
     41 HN12         4.7040     5.1890    -1.1180 hn         1 706       0.326500
     42 H9           5.7780     6.5560    -1.8270 ha         1 706       0.129000
     43 H4           6.8500     8.6650    -2.5870 ha         1 706       0.140000
     44 H5           5.5780    10.2390    -3.9850 h4         1 706       0.024100
     45 HN14         1.5200     6.8320    -3.8530 hn         1 706       0.496800
     46 H15          1.1470     9.6460    -4.1710 h1         1 706       0.057700
     47 H15A         1.7350     8.9720    -5.6970 h1         1 706       0.057700
     48 H17         -1.0570     9.0040    -3.2810 ha         1 706       0.142500
     49 H18         -3.3050     8.1650    -3.8470 h4         1 706       0.024100
     50 H20         -1.9250     6.5810    -7.4330 h4         1 706       0.024100
     51 H21          0.3630     7.3760    -6.9760 ha         1 706       0.142500
@<TRIPOS>BOND
     1     1     2 1
     2     2     3 1
     3     2     4 1
     4     2     8 1
     5     4     5 1
     6     5     6 1
     7     6     7 ar
     8     6     8 ar
     9     7    11 ar
    10     8     9 ar
    11     9    10 ar
    12    10    11 ar
    13    11    12 1
    14    12    13 1
    15    13    14 2
    16    13    15 1
    17    15    16 ar
    18    15    20 ar
    19    16    17 ar
    20    17    18 ar
    21    18    19 ar
    22    19    20 ar
    23    20    21 1
    24    21    22 1
    25    22    23 1
    26    23    24 ar
    27    23    28 ar
    28    24    25 ar
    29    25    26 ar
    30    26    27 ar
    31    27    28 ar
    32     1    29 1
    33     1    30 1
    34     1    31 1
    35     3    32 1
    36     3    33 1
    37     3    34 1
    38     4    35 1
    39     4    36 1
    40     5    37 1
    41     7    38 1
    42     9    39 1
    43    10    40 1
    44    12    41 1
    45    16    42 1
    46    17    43 1
    47    18    44 1
    48    21    45 1
    49    22    46 1
    50    22    47 1
    51    24    48 1
    52    25    49 1
    53    27    50 1
    54    28    51 1
@<TRIPOS>SUBSTRUCTURE
     1 706         1 TEMP              0 ****  ****    0 ROOT
