@<TRIPOS>MOLECULE
707
   28    28     1     0     0
SMALL
bcc


@<TRIPOS>ATOM
      1 O1           0.0000     0.0000     0.0000 o          1 707      -0.895300
      2 C1           1.2090     0.0000     0.0000 c          1 707       0.982600
      3 C2           1.9630     0.0000     1.3040 c3         1 707      -0.149400
      4 C3           0.9680     0.0000     2.4680 c3         1 707       0.051000
      5 N1           1.7020     0.0000     3.7360 ns         1 707      -0.183900
      6 C4           1.0280     0.0020     4.9030 c          1 707       0.578700
      7 O2          -0.1880     0.0020     4.9040 o          1 707      -0.659100
      8 C5           1.7670     0.0020     6.1820 ca         1 707      -0.173600
      9 C6           1.0700     0.0020     7.3930 ca         1 707       0.011000
     10 C7           1.7630     0.0020     8.5840 ca         1 707      -0.019900
     11 Br           0.8220     0.0020    10.2240 br         1 707      -0.127100
     12 C8           3.1540     0.0020     8.5800 ca         1 707       0.171100
     13 O3           3.8340     0.0020     9.7550 os         1 707      -0.296900
     14 C9           5.2610     0.0000     9.6800 c3         1 707       0.241700
     15 C10          3.8490     0.0000     7.3770 ca         1 707      -0.222000
     16 C11          3.1640    -0.0050     6.1830 ca         1 707      -0.036000
     17 H2           2.5860     0.8840     1.3610 hc         1 707       0.005700
     18 H3           2.5850    -0.8850     1.3620 hc         1 707       0.005700
     19 H4           0.3450    -0.8840     2.4110 h1         1 707       0.039700
     20 H5           0.3460     0.8850     2.4110 h1         1 707       0.039700
     21 H6           2.7020     0.0470     3.7360 hn         1 707       0.166500
     22 H7          -0.0120     0.0560     7.3960 ha         1 707       0.142000
     23 H8           5.6750     0.0010    10.6800 h1         1 707      -0.003300
     24 H9           5.5940    -0.8850     9.1510 h1         1 707      -0.003300
     25 H10          5.5950     0.8840     9.1500 h1         1 707      -0.003300
     26 H11          4.9330    -0.0020     7.3790 ha         1 707       0.121000
     27 H12          3.7080    -0.0060     5.2460 ha         1 707       0.111000
     28 O4           1.8790    -0.0060    -1.1640 o          1 707      -0.895300
@<TRIPOS>BOND
     1     1     2 1   
     2     2     3 1   
     3     2    28 1   
     4     3     4 1   
     5     3    17 1   
     6     3    18 1   
     7     4     5 1   
     8     4    19 1   
     9     4    20 1   
    10     5     6 1   
    11     5    21 1   
    12     6     7 2   
    13     6     8 1   
    14     8     9 ar  
    15     8    16 ar  
    16     9    10 ar  
    17     9    22 1   
    18    10    11 1   
    19    10    12 ar  
    20    12    13 1   
    21    12    15 ar  
    22    13    14 1   
    23    14    23 1   
    24    14    24 1   
    25    14    25 1   
    26    15    16 ar  
    27    15    26 1   
    28    16    27 1   
@<TRIPOS>SUBSTRUCTURE
     1 707         1 TEMP              0 ****  ****    0 ROOT
