@<TRIPOS>MOLECULE
708
   64    66     1     0     0
SMALL
bcc


@<TRIPOS>ATOM
      1 CL38        0.0860    0.6460    0.4780 cl        1 708      0.049000
      2 C37         1.6270    1.2860    0.2070 ca        1 708     -0.029000
      3 C25         2.3000    2.0170    1.2030 ca        1 708     -0.014000
      4 C26         1.7140    2.2170    2.5130 c2        1 708     -0.429000
      5 C27         1.8140    3.2480    3.3190 c1        1 708      0.164000
      6 C28        -0.2710    0.1630    4.9150 ca        1 708     -0.167500
      7 C33        -0.4770   -0.5980    3.7650 ca        1 708     -0.108000
      8 C32         0.1610   -1.8330    3.6100 ca        1 708     -0.100000
      9 C34        -0.0410   -2.6460    2.3510 c2        1 708      0.356000
     10 O36         0.7050   -3.6490    2.1490 o         1 708     -0.580000
     11 O35        -0.9350   -2.2860    1.5280 o         1 708     -0.580000
     12 C31         1.0050   -2.2990    4.6230 ca        1 708     -0.108000
     13 C30         1.2080   -1.5410    5.7760 ca        1 708     -0.167500
     14 C29         0.5710   -0.3080    5.9230 ca        1 708     -0.150000
     15 C24         3.5730    2.5360    0.9170 ca        1 708     -0.101000
     16 C23         4.1830    2.3160   -0.3110 ca        1 708     -0.158000
     17 C39         2.2280    1.0550   -1.0350 ca        1 708     -0.191000
     18 C22         3.5070    1.5610   -1.2850 ca        1 708      0.077000
     19 O21         4.1700    1.3990   -2.4880 os        1 708     -0.219000
     20 C20         3.7480    0.2490   -3.2480 c3        1 708      0.044000
     21 C19         4.7540   -0.0060   -4.2900 c2        1 708     -0.197000
     22 C4          5.1640    0.8160   -5.3230 c2        1 708      0.007000
     23 C2          4.8340    2.1970   -5.7300 c3        1 708     -0.048000
     24 C3          6.0840    3.0540   -5.8000 c3        1 708     -0.208000
     25 C1          4.1030    2.2050   -7.0600 c3        1 708     -0.208000
     26 C7          5.5130   -1.2520   -4.4880 c2        1 708     -0.034000
     27 N6          6.2880   -1.1050   -5.5860 n2        1 708     -0.059000
     28 O5          6.1020    0.0990   -6.0980 os        1 708     -0.070000
     29 C8          5.4540   -2.4300   -3.6250 c3        1 708     -0.569000
     30 S9          4.1350   -3.5790   -3.9530 s6        1 708      1.462000
     31 O10         4.6780   -5.1860   -4.3640 oh        1 708     -0.623000
     32 C11         2.7780   -3.4310   -2.9010 ca        1 708     -0.584000
     33 C17         1.5200   -2.9290   -3.2500 ca        1 708     -0.010000
     34 CL18        1.2060   -2.4130   -4.8510 cl        1 708     -0.054500
     35 C16         0.4790   -2.8170   -2.3210 ca        1 708     -0.135500
     36 C15         0.6850   -3.2130   -1.0020 ca        1 708     -0.057000
     37 C14         1.9230   -3.7370   -0.6180 ca        1 708     -0.135500
     38 C12         2.9380   -3.8430   -1.5650 ca        1 708     -0.010000
     39 CL13        4.4450   -4.5000   -1.0780 cl        1 708     -0.054500
     40 H26         1.0900    1.3610    2.8950 ha        1 708      0.237000
     41 H27        -0.7790    1.1300    5.0340 ha        1 708      0.109500
     42 H33        -1.1470   -0.2500    2.9630 ha        1 708      0.149000
     43 H31         1.5050   -3.2710    4.4830 ha        1 708      0.149000
     44 H30         1.8710   -1.9130    6.5690 ha        1 708      0.109500
     45 H29         0.7320    0.2900    6.8300 ha        1 708      0.107000
     46 H24         4.1030    3.1120    1.6910 ha        1 708      0.136000
     47 H23         5.1840    2.7130   -0.5290 ha        1 708      0.145000
     48 H39         1.6920    0.4660   -1.7940 ha        1 708      0.157000
     49 H20         2.7540    0.4900   -3.7180 h1        1 708      0.099500
     50 H20A        3.6380   -0.6390   -2.5680 h1        1 708      0.099500
     51 H2          4.1520    2.6140   -4.9310 hc        1 708      0.119000
     52 H3          6.7990    2.6370   -6.5480 hc        1 708      0.081333
     53 H3A         6.5880    3.0870   -4.8040 hc        1 708      0.081333
     54 H3B         5.8120    4.0950   -6.1000 hc        1 708      0.081333
     55 H1          3.1580    1.6150   -6.9900 hc        1 708      0.081333
     56 H1A         4.7440    1.7590   -7.8580 hc        1 708      0.081333
     57 H1B         3.8500    3.2550   -7.3450 hc        1 708      0.081333
     58 H8          6.3940   -3.0360   -3.7090 h1        1 708      0.138500
     59 H8A         5.3580   -2.1010   -2.5590 h1        1 708      0.138500
     60 HO10        4.7620   -5.7140   -3.5750 ho        1 708      0.207000
     61 H16        -0.4980   -2.4130   -2.6250 ha        1 708      0.181500
     62 H15        -0.1060   -3.1000   -0.2210 ha        1 708      0.239000
     63 H14         2.0580   -4.0390    0.4410 ha        1 708      0.181500
     64 HS9         3.7040   -3.2090   -5.1120 hs        1 708     -0.191000
@<TRIPOS>BOND
     1    1    2 1
     2    2    3 1
     3    2   17 1
     4    3    4 1
     5    3   15 1
     6    4    5 1
     7    4   40 1
     8    6    7 1
     9    6   14 1
    10    6   41 1
    11    7    8 1
    12    7   42 1
    13    8    9 1
    14    8   12 1
    15    9   10 1
    16    9   11 1
    17   12   13 1
    18   12   43 1
    19   13   14 1
    20   13   44 1
    21   14   45 1
    22   15   16 1
    23   15   46 1
    24   16   18 1
    25   16   47 1
    26   17   18 1
    27   17   48 1
    28   18   19 1
    29   19   20 1
    30   20   21 1
    31   20   49 1
    32   20   50 1
    33   21   22 1
    34   21   26 1
    35   22   23 1
    36   22   28 1
    37   23   24 1
    38   23   25 1
    39   23   51 1
    40   24   52 1
    41   24   53 1
    42   24   54 1
    43   25   55 1
    44   25   56 1
    45   25   57 1
    46   26   27 1
    47   26   29 1
    48   27   28 1
    49   29   30 1
    50   29   58 1
    51   29   59 1
    52   30   31 1
    53   30   32 1
    54   30   64 1
    55   31   60 1
    56   32   33 1
    57   32   38 1
    58   33   34 1
    59   33   35 1
    60   35   36 1
    61   35   61 1
    62   36   37 1
    63   36   62 1
    64   37   38 1
    65   37   63 1
    66   38   39 1
@<TRIPOS>SUBSTRUCTURE
     1 708         1 TEMP              0 ****  ****    0 ROOT
