@<TRIPOS>MOLECULE
molecule
   42    44     1     0     0
SMALL
bcc


@<TRIPOS>ATOM
      1 C1           0.0000     0.0000     0.0000 ca         1 709       0.010000
      2 C2           1.4070     0.0000     0.0000 ca         1 709      -0.069000
      3 C3           2.0850     0.0000     1.1770 ca         1 709      -0.158000
      4 C4           1.4010    -0.0000     2.4030 ca         1 709      -0.220900
      5 C5           0.0170    -0.0010     2.4360 ca         1 709       0.008000
      6 C6          -0.7010     0.0050     1.2330 ca         1 709      -0.087000
      7 C7          -2.1140    -0.0000     1.2260 ca         1 709       0.092600
      8 C8          -2.7840    -0.0010     0.0200 ca         1 709      -0.141000
      9 C9          -2.0850     0.0010    -1.1820 ca         1 709      -0.053000
     10 C10         -0.7230     0.0010    -1.2040 ca         1 709      -0.153000
     11 C11          2.1640     0.0000     3.6710 ce         1 709       0.553800
     12 N12          3.5420     0.0000     3.6450 nz         1 709      -0.800600
     13 N13          1.5340    -0.0000     4.8110 n2         1 709      -0.710100
     14 N14         -2.8230    -0.0020     2.4250 ns         1 709      -0.470100
     15 C15         -4.1100    -0.4020     2.4470 c          1 709       0.683700
     16 C16         -4.8950    -0.3010     3.6960 ca         1 709      -0.144600
     17 O17         -4.6250    -0.8460     1.4400 o          1 709      -0.578100
     18 C18         -4.3580     0.3480     4.8090 ca         1 709      -0.131000
     19 C19         -5.0930     0.4410     5.9740 ca         1 709      -0.112000
     20 C20         -6.3620    -0.1040     6.0400 ca         1 709      -0.160000
     21 C21         -6.9060    -0.7470     4.9360 ca         1 709       0.121100
     22 C22         -6.1770    -0.8450     3.7620 ca         1 709      -0.026300
     23 C23         -6.7660    -1.5420     2.5640 c3         1 709      -0.046800
     24 O24         -8.1540    -1.2800     5.0080 oh         1 709      -0.496100
     25 H2           1.9480     0.0000    -0.9380 ha         1 709       0.157000
     26 H3           3.1690     0.0010     1.1690 ha         1 709       0.099000
     27 H5          -0.5070    -0.0010     3.3840 ha         1 709       0.157000
     28 H8          -3.8670    -0.0000     0.0100 ha         1 709       0.201000
     29 H9          -2.6330     0.0010    -2.1170 ha         1 709       0.155000
     30 H10         -0.1970     0.0020    -2.1510 ha         1 709       0.149000
     31 H121         3.8670     0.8230     3.1770 hn         1 709       0.464133
     32 H122         3.8670    -0.8110     3.1570 hn         1 709       0.464133
     33 H13          2.0500    -0.0000     5.6690 hn         1 709       0.429400
     34 H14         -2.3860     0.3220     3.2650 hn         1 709       0.330500
     35 H18         -3.3640     0.7760     4.7600 ha         1 709       0.115000
     36 H19         -4.6750     0.9430     6.8380 ha         1 709       0.139000
     37 H20         -6.9350    -0.0280     6.9570 ha         1 709       0.146000
     38 H231        -6.1070    -2.3440     2.2520 hc         1 709       0.063033
     39 H232        -7.7340    -1.9520     2.8240 hc         1 709       0.063033
     40 H233        -6.8800    -0.8330     1.7530 hc         1 709       0.063033
     41 H24         -8.7260    -0.6830     5.4610 ho         1 709       0.430000
     42 H123         3.8940     0.0270     4.5810 hn         1 709       0.464133
@<TRIPOS>BOND
     1     1     2 ar  
     2     1     6 ar  
     3     1    10 ar  
     4     2     3 ar  
     5     2    25 1   
     6     3     4 ar  
     7     3    26 1   
     8     4     5 ar  
     9     4    11 1   
    10     5     6 ar  
    11     5    27 1   
    12     6     7 ar  
    13     7     8 ar  
    14     7    14 1   
    15     8     9 ar  
    16     8    28 1   
    17     9    10 ar  
    18     9    29 1   
    19    10    30 1   
    20    11    12 1   
    21    11    13 2   
    22    12    31 1   
    23    12    32 1   
    24    13    33 1   
    25    14    15 1   
    26    14    34 1   
    27    15    16 1   
    28    15    17 2   
    29    16    18 ar  
    30    16    22 ar  
    31    18    19 ar  
    32    18    35 1   
    33    19    20 ar  
    34    19    36 1   
    35    20    21 ar  
    36    20    37 1   
    37    21    22 ar  
    38    21    24 1   
    39    22    23 1   
    40    23    38 1   
    41    23    39 1   
    42    23    40 1   
    43    24    41 1   
    44    42    12 1   
@<TRIPOS>SUBSTRUCTURE
     1 709         1 TEMP              0 ****  ****    0 ROOT
