@<TRIPOS>MOLECULE
molecule
  132   132     1     0     0
SMALL
bcc


@<TRIPOS>ATOM
      1 CAN          0.0000     0.0000     0.0000 c          1 70E       0.639100
      2 CAP          1.5070     0.0000     0.0000 c3         1 70E      -0.120700
      3 CAQ          2.0160     0.0000     1.4420 c3         1 70E      -0.075400
      4 CAR          1.6120    -1.3080     2.1250 c3         1 70E      -0.093400
      5 CAS          2.1220    -1.3090     3.5680 c3         1 70E      -0.080400
      6 CAT          1.7180    -2.6160     4.2520 c3         1 70E      -0.081400
      7 CAU          2.2280    -2.6170     5.6940 c3         1 70E      -0.082400
      8 CAV          1.8230    -3.9250     6.3780 c3         1 70E      -0.082400
      9 CAW          2.3320    -3.9250     7.8200 c3         1 70E      -0.082400
     10 CAX          1.9290    -5.2330     8.5040 c3         1 70E      -0.082400
     11 CAY          2.4380    -5.2330     9.9460 c3         1 70E      -0.082400
     12 CAZ          2.0330    -6.5410    10.6290 c3         1 70E      -0.082400
     13 CBA          2.5440    -6.5410    12.0720 c3         1 70E      -0.082400
     14 CBB          2.1390    -7.8500    12.7550 c3         1 70E      -0.081400
     15 CBC          2.6480    -7.8500    14.1980 c3         1 70E      -0.084400
     16 CBD          2.2450    -9.1580    14.8810 c3         1 70E      -0.092100
     17 CBE          2.0170     1.2500    -0.7210 c3         1 70E       0.163100
     18 CBG          1.5070     1.2510    -2.1630 c3         1 70E      -0.110400
     19 CBH          2.1160     2.4330    -2.9200 c3         1 70E      -0.079400
     20 CBI          1.6070     2.4330    -4.3620 c3         1 70E      -0.079400
     21 CBJ          2.2160     3.6150    -5.1170 c3         1 70E      -0.082400
     22 CBK          1.7070     3.6160    -6.5600 c3         1 70E      -0.082400
     23 CBL          2.3170     4.7990    -7.3170 c3         1 70E      -0.082400
     24 CBM          1.8070     4.7990    -8.7590 c3         1 70E      -0.081400
     25 CBN          2.4170     5.9800    -9.5150 c3         1 70E      -0.082400
     26 CBO          1.9070     5.9820   -10.9570 c3         1 70E      -0.082400
     27 CBP          2.5170     7.1640   -11.7140 c3         1 70E      -0.082400
     28 CBQ          2.0070     7.1640   -13.1560 c3         1 70E      -0.081400
     29 CBR          2.6160     8.3470   -13.9120 c3         1 70E      -0.081400
     30 CBS          2.1070     8.3470   -15.3540 c3         1 70E      -0.082400
     31 CBT          2.7170     9.5300   -16.1110 c3         1 70E      -0.082400
     32 CBU          2.2070     9.5300   -17.5530 c3         1 70E      -0.082400
     33 CBV          2.8160    10.7120   -18.3100 c3         1 70E      -0.082400
     34 CBW          2.3070    10.7120   -19.7520 c3         1 70E      -0.081400
     35 CBX          2.9170    11.8950   -20.5080 c3         1 70E      -0.084400
     36 CBY          2.4070    11.8950   -21.9500 c3         1 70E      -0.092100
     37 OAM         -0.6050     0.9030    -0.5280 o          1 70E      -0.534000
     38 OAO         -0.6710    -1.0080     0.5800 os         1 70E      -0.422900
     39 CAG         -2.1220    -0.9420     0.5420 c3         1 70E       0.152400
     40 OBF          1.5400     2.4160    -0.0470 oh         1 70E      -0.585800
     41 C1          -2.8390    -4.5570     1.1090 c3         1 70E       0.336900
     42 O1          -2.3100    -4.6850     2.4300 oh         1 70E      -0.602800
     43 C2          -4.3690    -4.5230     1.1730 c3         1 70E       0.113100
     44 O2          -4.9010    -4.4500    -0.1510 oh         1 70E      -0.561800
     45 C3          -4.8110    -3.2950     1.9710 c3         1 70E       0.120100
     46 O3          -4.3360    -3.4000     3.3150 oh         1 70E      -0.577800
     47 C4          -4.2300    -2.0380     1.3180 c3         1 70E       0.113100
     48 O4          -4.7570    -1.8970    -0.0030 oh         1 70E      -0.566800
     49 C5          -2.7050    -2.1670     1.2480 c3         1 70E       0.156100
     50 O5          -2.3620    -3.3470     0.5190 os         1 70E      -0.395600
     51 H1           1.8680    -0.8840    -0.5110 hc         1 70E       0.080700
     52 H2           1.5840     0.8360     1.9780 hc         1 70E       0.051200
     53 H3           3.0960     0.0900     1.4440 hc         1 70E       0.051200
     54 H4           0.5330    -1.3980     2.1240 hc         1 70E       0.058700
     55 H5           2.0450    -2.1440     1.5890 hc         1 70E       0.058700
     56 H6           3.2020    -1.2190     3.5700 hc         1 70E       0.038200
     57 H7           1.6900    -0.4720     4.1040 hc         1 70E       0.038200
     58 H8           0.6380    -2.7050     4.2500 hc         1 70E       0.044200
     59 H9           2.1500    -3.4520     3.7150 hc         1 70E       0.044200
     60 H10          1.7960    -1.7810     6.2300 hc         1 70E       0.039700
     61 H11          3.3070    -2.5290     5.6960 hc         1 70E       0.039700
     62 H12          0.7430    -4.0140     6.3760 hc         1 70E       0.041700
     63 H13          2.2550    -4.7610     5.8420 hc         1 70E       0.041700
     64 H14          1.8990    -3.0890     8.3570 hc         1 70E       0.040200
     65 H15          3.4120    -3.8350     7.8220 hc         1 70E       0.040200
     66 H16          0.8490    -5.3230     8.5020 hc         1 70E       0.040700
     67 H17          2.3610    -6.0690     7.9680 hc         1 70E       0.040700
     68 H18          3.5180    -5.1450     9.9470 hc         1 70E       0.040700
     69 H19          2.0060    -4.3970    10.4810 hc         1 70E       0.040700
     70 H20          2.4650    -7.3780    10.0930 hc         1 70E       0.040700
     71 H21          0.9530    -6.6300    10.6280 hc         1 70E       0.040700
     72 H22          3.6230    -6.4520    12.0730 hc         1 70E       0.040700
     73 H23          2.1110    -5.7050    12.6080 hc         1 70E       0.040700
     74 H24          2.5710    -8.6860    12.2190 hc         1 70E       0.040700
     75 H25          1.0590    -7.9390    12.7530 hc         1 70E       0.040700
     76 H26          3.7280    -7.7600    14.2000 hc         1 70E       0.039700
     77 H27          2.2160    -7.0140    14.7340 hc         1 70E       0.039700
     78 H28          1.1650    -9.2480    14.8800 hc         1 70E       0.032367
     79 H29          2.6770    -9.9940    14.3450 hc         1 70E       0.032367
     80 H30          2.6060    -9.1590    15.9030 hc         1 70E       0.032367
     81 H31          3.1000     1.2500    -0.7200 h1         1 70E       0.032700
     82 H32          0.4270     1.3400    -2.1640 hc         1 70E       0.067700
     83 H33          1.7930     0.3250    -2.6480 hc         1 70E       0.067700
     84 H34          1.8290     3.3580    -2.4360 hc         1 70E       0.039200
     85 H35          3.1960     2.3440    -2.9190 hc         1 70E       0.039200
     86 H36          1.8940     1.5080    -4.8470 hc         1 70E       0.043700
     87 H37          0.5270     2.5210    -4.3640 hc         1 70E       0.043700
     88 H38          3.2960     3.5270    -5.1160 hc         1 70E       0.039700
     89 H39          1.9290     4.5410    -4.6330 hc         1 70E       0.039700
     90 H40          1.9940     2.6910    -7.0450 hc         1 70E       0.041700
     91 H41          0.6270     3.7040    -6.5620 hc         1 70E       0.041700
     92 H42          2.0300     5.7240    -6.8320 hc         1 70E       0.040200
     93 H43          3.3970     4.7110    -7.3150 hc         1 70E       0.040200
     94 H44          0.7280     4.8880    -8.7600 hc         1 70E       0.041200
     95 H45          2.0940     3.8740    -9.2430 hc         1 70E       0.041200
     96 H46          2.1300     6.9060    -9.0300 hc         1 70E       0.040700
     97 H47          3.4960     5.8920    -9.5140 hc         1 70E       0.040700
     98 H48          0.8270     6.0710   -10.9580 hc         1 70E       0.040700
     99 H49          2.1930     5.0560   -11.4420 hc         1 70E       0.040700
    100 H50          3.5970     7.0750   -11.7120 hc         1 70E       0.040700
    101 H51          2.2300     8.0900   -11.2290 hc         1 70E       0.040700
    102 H52          2.2950     6.2390   -13.6400 hc         1 70E       0.040700
    103 H53          0.9280     7.2520   -13.1570 hc         1 70E       0.040700
    104 H54          2.3290     9.2720   -13.4280 hc         1 70E       0.040700
    105 H55          3.6960     8.2590   -13.9110 hc         1 70E       0.040700
    106 H56          1.0270     8.4350   -15.3560 hc         1 70E       0.040700
    107 H57          2.3940     7.4220   -15.8390 hc         1 70E       0.040700
    108 H58          2.4290    10.4550   -15.6260 hc         1 70E       0.040700
    109 H59          3.7960     9.4420   -16.1090 hc         1 70E       0.040700
    110 H60          1.1270     9.6180   -17.5540 hc         1 70E       0.040700
    111 H61          2.4940     8.6040   -18.0370 hc         1 70E       0.040700
    112 H62          2.5290    11.6370   -17.8250 hc         1 70E       0.040700
    113 H63          3.8960    10.6230   -18.3080 hc         1 70E       0.040700
    114 H64          1.2270    10.8000   -19.7530 hc         1 70E       0.040700
    115 H65          2.5940     9.7870   -20.2360 hc         1 70E       0.040700
    116 H66          2.6290    12.8200   -20.0230 hc         1 70E       0.039700
    117 H67          3.9960    11.8070   -20.5060 hc         1 70E       0.039700
    118 H68          1.3270    11.9830   -21.9510 hc         1 70E       0.032367
    119 H69          2.8390    12.7320   -22.4850 hc         1 70E       0.032367
    120 H70          2.6940    10.9700   -22.4350 hc         1 70E       0.032367
    121 H71         -2.4560    -0.9250    -0.4890 h1         1 70E       0.064200
    122 H72         -2.4560    -0.0420     1.0440 h1         1 70E       0.064200
    123 H73          2.2670     2.9810     0.1580 ho         1 70E       0.394000
    124 H74         -2.5240    -5.4000     0.5050 h2         1 70E       0.066700
    125 H76         -4.7290    -5.4200     1.6630 h1         1 70E       0.042700
    126 H77         -5.4140    -5.2210    -0.3270 ho         1 70E       0.395000
    127 H78         -5.8930    -3.2340     1.9690 h1         1 70E       0.039700
    128 H79         -5.0650    -3.3490     3.9110 ho         1 70E       0.399000
    129 H80         -4.4900    -1.1700     1.9120 h1         1 70E       0.038700
    130 H81         -5.4530    -1.2600     0.0030 ho         1 70E       0.394000
    131 H82         -2.3040    -2.2360     2.2520 h1         1 70E       0.080700
    132 H75         -1.6790    -5.3860     2.4500 ho         1 70E       0.405000
@<TRIPOS>BOND
     1     8     7 1   
     2     8     9 1   
     3     7     6 1   
     4    10     9 1   
     5    10    11 1   
     6     6     5 1   
     7    12    11 1   
     8    12    13 1   
     9    16    15 1   
    10     5     4 1   
    11    15    14 1   
    12    13    14 1   
    13     4     3 1   
    14     3     2 1   
    15    37     1 2   
    16     2     1 1   
    17     2    17 1   
    18     1    38 1   
    19    48    47 1   
    20    18    17 1   
    21    18    19 1   
    22    17    40 1   
    23    38    39 1   
    24    20    19 1   
    25    20    21 1   
    26    39    49 1   
    27    22    21 1   
    28    22    23 1   
    29    47    45 1   
    30    47    49 1   
    31    46    45 1   
    32    45    43 1   
    33    49    50 1   
    34    23    24 1   
    35    24    25 1   
    36    50    41 1   
    37    43    41 1   
    38    43    44 1   
    39    41    42 1   
    40    25    26 1   
    41    26    27 1   
    42    27    28 1   
    43    28    29 1   
    44    29    30 1   
    45    30    31 1   
    46    31    32 1   
    47    33    32 1   
    48    33    34 1   
    49    34    35 1   
    50    35    36 1   
    51     2    51 1   
    52     3    52 1   
    53     3    53 1   
    54     4    54 1   
    55     4    55 1   
    56     5    56 1   
    57     5    57 1   
    58     6    58 1   
    59     6    59 1   
    60     7    60 1   
    61     7    61 1   
    62     8    62 1   
    63     8    63 1   
    64     9    64 1   
    65     9    65 1   
    66    10    66 1   
    67    10    67 1   
    68    11    68 1   
    69    11    69 1   
    70    12    70 1   
    71    12    71 1   
    72    13    72 1   
    73    13    73 1   
    74    14    74 1   
    75    14    75 1   
    76    15    76 1   
    77    15    77 1   
    78    16    78 1   
    79    16    79 1   
    80    16    80 1   
    81    17    81 1   
    82    18    82 1   
    83    18    83 1   
    84    19    84 1   
    85    19    85 1   
    86    20    86 1   
    87    20    87 1   
    88    21    88 1   
    89    21    89 1   
    90    22    90 1   
    91    22    91 1   
    92    23    92 1   
    93    23    93 1   
    94    24    94 1   
    95    24    95 1   
    96    25    96 1   
    97    25    97 1   
    98    26    98 1   
    99    26    99 1   
   100    27   100 1   
   101    27   101 1   
   102    28   102 1   
   103    28   103 1   
   104    29   104 1   
   105    29   105 1   
   106    30   106 1   
   107    30   107 1   
   108    31   108 1   
   109    31   109 1   
   110    32   110 1   
   111    32   111 1   
   112    33   112 1   
   113    33   113 1   
   114    34   114 1   
   115    34   115 1   
   116    35   116 1   
   117    35   117 1   
   118    36   118 1   
   119    36   119 1   
   120    36   120 1   
   121    39   121 1   
   122    39   122 1   
   123    40   123 1   
   124    41   124 1   
   125    42   132 1   
   126    43   125 1   
   127    44   126 1   
   128    45   127 1   
   129    46   128 1   
   130    47   129 1   
   131    48   130 1   
   132    49   131 1   
@<TRIPOS>SUBSTRUCTURE
     1 70E         1 TEMP              0 ****  ****    0 ROOT
