@<TRIPOS>MOLECULE
molecule
   33    34     1     0     0
SMALL
bcc


@<TRIPOS>ATOM
      1 C10          0.0000     0.0000     0.0000 c3         1 70G      -0.194400
      2 C11          1.5070     0.0000     0.0000 c          1 70G       0.887600
      3 C14         -4.0120    -1.7800    -1.2660 ca         1 70G      -0.147000
      4 C15         -3.3660    -2.9990    -1.3030 ca         1 70G      -0.151000
      5 C02         -1.8850    -2.2520     0.4170 ca         1 70G      -0.042300
      6 C03         -2.5360    -1.0260     0.4570 ca         1 70G      -0.044300
      7 C04         -3.5980    -0.7870    -0.3870 ca         1 70G      -0.078300
      8 C05         -4.3380     0.5240    -0.4090 c3         1 70G      -0.028100
      9 C06         -4.0610     1.3190     0.8660 c3         1 70G      -0.085400
     10 C07         -2.5430     1.3930     1.0700 c3         1 70G      -0.072400
     11 C08         -2.0390    -0.0000     1.4430 c3         1 70G      -0.031400
     12 C09         -0.5090     0.0000     1.4430 c3         1 70G      -0.092400
     13 O12          2.1780     0.0000    -1.1630 o          1 70G      -0.857300
     14 O13          2.1120     0.0010     1.0460 o          1 70G      -0.857300
     15 C16         -2.2970    -3.2340    -0.4600 ca         1 70G      -0.135000
     16 H1          -0.3610     0.8850    -0.5100 hc         1 70G       0.037700
     17 H2          -0.3610    -0.8850    -0.5110 hc         1 70G       0.037700
     18 H5          -0.5870    -3.5800     1.4560 hc         1 70G       0.057700
     19 H6          -0.9170    -2.0630     2.3030 hc         1 70G       0.057700
     20 H7           0.1770    -2.0800     0.9130 hc         1 70G       0.057700
     21 H8          -4.0140     1.1010    -1.2660 hc         1 70G       0.040700
     22 H9          -5.4020     0.3300    -0.4830 hc         1 70G       0.040700
     23 H10         -4.5170     0.8200     1.7120 hc         1 70G       0.031200
     24 H11         -4.4630     2.3200     0.7640 hc         1 70G       0.031200
     25 H12         -2.3300     2.0750     1.8840 hc         1 70G       0.051200
     26 H13         -2.0770     1.6990     0.1410 hc         1 70G       0.051200
     27 H14         -2.4000    -0.2550     2.4320 hc         1 70G       0.037700
     28 H15         -0.1470    -0.8840     1.9540 hc         1 70G       0.060200
     29 H16         -0.1480     0.8850     1.9530 hc         1 70G       0.060200
     30 H18         -1.9640    -4.2540    -0.6120 ha         1 70G       0.123000
     31 H3          -4.8500    -1.5960    -1.9270 ha         1 70G       0.110000
     32 C01         -0.7210    -2.5120     1.3370 c3         1 70G      -0.066800
     33 H4          -3.7520    -3.7970    -1.9250 ha         1 70G       0.111000
@<TRIPOS>BOND
     1     3     4 ar  
     2     3     7 ar  
     3     4    15 ar  
     4     8     7 1   
     5     8     9 1   
     6     7     6 ar  
     7    15     5 ar  
     8     9    10 1   
     9     6     5 ar  
    10     6    11 1   
    11     5    32 1   
    12    10    11 1   
    13    11    12 1   
    14    12     1 1   
    15    14     2 1   
    16     1     2 1   
    17     2    13 1   
    18     1    16 1   
    19     1    17 1   
    20     3    31 1   
    21     4    33 1   
    22    32    18 1   
    23    32    19 1   
    24    32    20 1   
    25     8    21 1   
    26     8    22 1   
    27     9    23 1   
    28     9    24 1   
    29    10    25 1   
    30    10    26 1   
    31    11    27 1   
    32    12    28 1   
    33    12    29 1   
    34    15    30 1   
@<TRIPOS>SUBSTRUCTURE
     1 70G         1 TEMP              0 ****  ****    0 ROOT
