@<TRIPOS>MOLECULE
molecule
   30    31     1     0     0
SMALL
bcc


@<TRIPOS>ATOM
      1 C10          0.0000     0.0000     0.0000 c2         1 70H      -0.053200
      2 C11          1.5070     0.0000     0.0000 c3         1 70H      -0.170200
      3 C12          2.0090     0.0000     1.4220 c          1 70H       0.896600
      4 C15         -4.9820     1.3970    -3.0280 ca         1 70H      -0.137000
      5 C02         -2.1890     1.3940    -3.0770 ca         1 70H      -0.043300
      6 C03         -2.8550     1.1710    -1.8640 ca         1 70H      -0.038000
      7 C04         -4.2710     1.1660    -1.8370 ca         1 70H      -0.025000
      8 C05         -4.9400     0.9320    -0.6240 ca         1 70H      -0.158000
      9 C06         -4.2300     0.7100     0.5170 ca         1 70H      -0.110000
     10 C07         -2.8390     0.7120     0.5100 ca         1 70H      -0.141000
     11 C08         -2.1380     0.9380    -0.6640 ca         1 70H       0.004200
     12 C09         -0.6640     0.9390    -0.6640 ce         1 70H      -0.239200
     13 O13          3.3290    -0.0010     1.6660 o          1 70H      -0.847300
     14 O14          1.2240     0.0000     2.3400 o          1 70H      -0.847300
     15 C16         -4.3030     1.6150    -4.1870 ca         1 70H      -0.128000
     16 C17         -2.9100     1.6140    -4.2120 ca         1 70H      -0.158000
     17 H1          -0.5420    -0.7660     0.5410 ha         1 70H       0.129000
     18 H2           1.8680     0.8840    -0.5110 hc         1 70H       0.041700
     19 H3           1.8680    -0.8850    -0.5110 hc         1 70H       0.041700
     20 H4          -6.0660     1.4000    -3.0230 ha         1 70H       0.119000
     21 H5          -0.3030     2.2470    -2.5790 hc         1 70H       0.051700
     22 H6          -0.3540     1.4470    -4.1560 hc         1 70H       0.051700
     23 H7          -0.3080     0.4810    -2.6760 hc         1 70H       0.051700
     24 H8          -6.0230     0.9260    -0.5960 ha         1 70H       0.116000
     25 H9          -4.7570     0.5300     1.4460 ha         1 70H       0.118000
     26 H10         -2.2980     0.5320     1.4310 ha         1 70H       0.156000
     27 H11         -0.1220     1.7050    -1.2050 ha         1 70H       0.140000
     28 H13         -4.8540     1.7920    -5.1030 ha         1 70H       0.113000
     29 H14         -2.3930     1.7900    -5.1480 ha         1 70H       0.119000
     30 C01         -0.6830     1.3920    -3.1260 c3         1 70H      -0.055800
@<TRIPOS>BOND
     1    15     4 ar
     2    15    16 ar
     3     4     7 ar
     4    16     5 ar
     5     5    30 1
     6     5     6 ar
     7     7     8 ar
     8     7     6 ar
     9     8     9 ar
    10     6    11 ar
    11     9    10 ar
    12    11    10 ar
    13    11    12 1
    14    12     1 2
    15    14     3 1
    16     1     2 1
    17     3    13 1
    18     3     2 1
    19     1    17 1
    20     2    18 1
    21     2    19 1
    22     4    20 1
    23    30    21 1
    24    30    22 1
    25    30    23 1
    26     8    24 1
    27     9    25 1
    28    10    26 1
    29    12    27 1
    30    15    28 1
    31    16    29 1
@<TRIPOS>SUBSTRUCTURE
     1 70H         1 TEMP              0 ****  ****    0 ROOT
