@<TRIPOS>MOLECULE
70J
   51    54     1     0     0
SMALL
bcc


@<TRIPOS>ATOM
      1 C1           0.0000     0.0000     0.0000 cx         1 70J      -0.145300
      2 C2           1.5300     0.0000     0.0000 cx         1 70J      -0.078400
      3 C3           0.7640     0.0000     1.3260 cx         1 70J      -0.078400
      4 C7          -3.1390    -3.5660    -3.9330 cc         1 70J       0.152200
      5 C8          -4.1100    -2.6560    -3.4800 cc         1 70J      -0.312800
      6 C9          -3.8840    -1.9170    -2.3220 cd         1 70J       0.027000
      7 C10         -5.3510    -2.5140    -4.2600 c          1 70J       0.643700
      8 C11         -4.5410    -4.1220    -5.7660 c          1 70J       0.607500
      9 C13         -2.6550    -6.5980    -4.9780 ca         1 70J      -0.133300
     10 C14         -3.4890    -7.4930    -5.6210 ca         1 70J      -0.085500
     11 C15         -3.7290    -8.7360    -5.0660 ca         1 70J      -0.103000
     12 C16         -3.1330    -9.0850    -3.8690 ca         1 70J      -0.091000
     13 O3          -4.7230    -4.7730    -6.7760 o          1 70J      -0.716500
     14 N2          -3.3910    -4.2890    -5.0900 n          1 70J       0.042600
     15 C18         -2.0550    -6.9490    -3.7830 ca         1 70J      -0.085500
     16 C17         -2.2980    -8.1910    -3.2250 ca         1 70J      -0.103000
     17 C6          -1.9570    -3.7190    -3.2240 cc         1 70J      -0.278600
     18 C5          -1.7440    -2.9770    -2.0800 cd         1 70J       0.038000
     19 N1          -5.4970    -3.2650    -5.3740 n          1 70J      -0.092400
     20 O2          -6.2220    -1.7400    -3.9110 o          1 70J      -0.657500
     21 C4          -2.7040    -2.0860    -1.6270 cd         1 70J      -0.602000
     22 S           -2.4030    -1.1300    -0.1190 s6         1 70J       0.776400
     23 O           -2.1270    -0.2520     1.2630 oh         1 70J      -0.541700
     24 O1          -3.2610     0.1410    -0.7550 oh         1 70J      -0.541700
     25 N           -0.6780    -1.2430    -0.3930 n7         1 70J      -0.247400
     26 C           -0.7060     1.2940    -0.4080 c3         1 70J       0.004900
     27 H3           1.9970     0.9390    -0.2700 hc         1 70J       0.055700
     28 H4           1.9970    -0.9390    -0.2700 hc         1 70J       0.055700
     29 H5           0.7640     0.9390     1.8650 hc         1 70J       0.055700
     30 H6           0.7640    -0.9390     1.8650 hc         1 70J       0.055700
     31 H10         -4.6320    -1.2200    -1.9650 ha         1 70J       0.126000
     32 H11         -1.4030    -4.9070    -5.3000 h1         1 70J       0.047700
     33 H12         -2.4590    -5.3100    -6.6610 h1         1 70J       0.047700
     34 H13         -3.9560    -7.2190    -6.5590 ha         1 70J       0.118500
     35 H14         -4.3830    -9.4370    -5.5700 ha         1 70J       0.104500
     36 H15         -3.3220   -10.0590    -3.4330 ha         1 70J       0.102000
     37 H20         -7.4520    -2.5610    -5.6170 h1         1 70J       0.029033
     38 H19         -7.1230    -4.1290    -6.3670 h1         1 70J       0.029033
     39 H18         -6.4970    -2.6480    -7.1040 h1         1 70J       0.029033
     40 H17         -1.4010    -6.2480    -3.2780 ha         1 70J       0.118500
     41 H16         -1.8300    -8.4650    -2.2880 ha         1 70J       0.104500
     42 H9          -1.2010    -4.4130    -3.5710 ha         1 70J       0.127000
     43 H8          -0.8220    -3.1010    -1.5250 ha         1 70J       0.110000
     44 H21         -1.2140    -0.3080     1.4930 ho         1 70J       0.444000
     45 H22         -3.6640    -0.1250    -1.5650 ho         1 70J       0.444000
     46 H7          -0.5670    -1.9260     0.3300 hn         1 70J       0.143700
     47 H1          -1.4630     1.0740    -1.1520 hc         1 70J       0.031700
     48 H2          -1.1740     1.7410     0.4610 hc         1 70J       0.031700
     49 H            0.0170     1.9850    -0.8240 hc         1 70J       0.031700
     50 C12         -2.3930    -5.2430    -5.5820 c3         1 70J       0.089300
     51 C19         -6.7220    -3.1430    -6.1670 c3         1 70J       0.069300
@<TRIPOS>BOND
     1     1     2 1   
     2     1     3 1   
     3     1    25 1   
     4     1    26 1   
     5     2     3 1   
     6     2    27 1   
     7     2    28 1   
     8     3    29 1   
     9     3    30 1   
    10     4     5 1   
    11     4    14 2   
    12     4    17 1   
    13     5     6 2   
    14     5     7 1   
    15     6    21 1   
    16     6    31 1   
    17     7    19 1   
    18     7    20 2   
    19     8    13 2   
    20     8    14 1   
    21     8    19 1   
    22     9    10 ar  
    23     9    15 ar  
    24     9    50 1   
    25    10    11 ar  
    26    10    34 1   
    27    11    12 ar  
    28    11    35 1   
    29    12    16 ar  
    30    12    36 1   
    31    14    50 1   
    32    15    16 ar  
    33    15    40 1   
    34    16    41 1   
    35    17    18 2   
    36    17    42 1   
    37    18    21 1   
    38    18    43 1   
    39    19    51 1   
    40    21    22 2   
    41    22    23 1   
    42    22    24 1   
    43    22    25 2   
    44    23    44 1   
    45    24    45 1   
    46    25    46 1   
    47    26    47 1   
    48    26    48 1   
    49    26    49 1   
    50    32    50 1   
    51    33    50 1   
    52    37    51 1   
    53    38    51 1   
    54    39    51 1   
@<TRIPOS>SUBSTRUCTURE
     1 70J         1 TEMP              0 ****  ****    0 ROOT
