@<TRIPOS>MOLECULE
molecule
   63    67     1     0     0
SMALL
bcc


@<TRIPOS>ATOM
      1 C1           0.0000     0.0000     0.0000 c          1 70K       0.682700
      2 C7          -2.0340    -0.5480    -1.3340 ca         1 70K       0.192100
      3 C9          -2.1980    -0.0220    -3.6670 ca         1 70K      -0.017000
      4 C10         -0.8490     0.5630    -3.6110 ca         1 70K      -0.167000
      5 C11         -0.6080     1.0080    -4.9200 cc         1 70K      -0.177300
      6 C14          0.6030     1.6720    -5.4140 c          1 70K       0.692300
      7 C16          2.0480     0.0910     1.2100 ca         1 70K       0.038600
      8 C19          2.0450     0.2220     3.6050 ca         1 70K      -0.145500
      9 C20          4.1260     0.2390     2.3990 ca         1 70K      -0.145500
     10 C21          1.3550     0.1270     2.4130 ca         1 70K      -0.152000
     11 N23          4.1310     0.3790     4.8090 nh         1 70K      -0.593000
     12 C24          3.6880     1.5480     5.5820 c3         1 70K       0.125300
     13 C27          6.3090     0.4740     5.9220 c3         1 70K       0.136900
     14 C31         -0.0900     3.7090    -4.2450 c3         1 70K       0.101500
     15 C32         -0.3800     5.0320    -4.9600 c3         1 70K      -0.098400
     16 C33          0.9370     5.7620    -5.2290 c3         1 70K      -0.082400
     17 C34          1.8190     4.9050    -6.1390 c3         1 70K      -0.098400
     18 N2           1.3480     0.0000     0.0000 n          1 70K      -0.371000
     19 O3          -0.6070     0.0000     1.0530 o          1 70K      -0.571100
     20 C4          -0.7380     0.0070    -1.2770 ca         1 70K      -0.168600
     21 C5          -0.1480     0.5590    -2.4020 ca         1 70K      -0.030000
     22 C6          -2.7490    -0.5690    -2.4920 ca         1 70K      -0.207000
     23 N12         -1.7180     0.6980    -5.6380 na         1 70K       0.127800
     24 N13         -2.6070     0.1170    -4.9160 nc         1 70K      -0.283400
     25 O15          1.3630     1.0780    -6.1550 o          1 70K      -0.591100
     26 C17          3.4350     0.1500     1.2060 ca         1 70K      -0.152000
     27 C18          3.4320     0.2810     3.6020 ca         1 70K       0.076600
     28 C25          4.4340     1.5820     6.9190 c3         1 70K       0.136900
     29 O26          5.8420     1.5990     6.6720 os         1 70K      -0.425600
     30 C28          5.5820     0.4290     4.5750 c3         1 70K       0.125300
     31 C29          2.1360     3.5800    -5.4380 c3         1 70K       0.101500
     32 N30          0.8730     2.9400    -5.0460 n          1 70K      -0.478800
     33 H1           1.5030     0.2530     4.5430 ha         1 70K       0.137500
     34 H2           5.2090     0.2850     2.3960 ha         1 70K       0.137500
     35 H3           0.2730     0.0810     2.4160 ha         1 70K       0.170500
     36 H4           1.4690    -0.6010    -2.0000 h1         1 70K       0.051033
     37 H5           2.3200     0.9020    -1.6180 h1         1 70K       0.051033
     38 H6           2.9970    -0.6520    -1.1110 h1         1 70K       0.051033
     39 H7           2.6230     1.4760     5.7650 h1         1 70K       0.050450
     40 H8           3.9050     2.4510     5.0250 h1         1 70K       0.050450
     41 H9           6.1050    -0.4360     6.4730 h1         1 70K       0.054700
     42 H10          7.3750     0.5710     5.7540 h1         1 70K       0.054700
     43 H11          0.3310     3.9110    -3.2670 h1         1 70K       0.061200
     44 H12         -1.0080     3.1440    -4.1410 h1         1 70K       0.061200
     45 H13         -1.0130     5.6490    -4.3330 hc         1 70K       0.052950
     46 H14         -0.8800     4.8310    -5.9000 hc         1 70K       0.052950
     47 H15          0.7300     6.7080    -5.7150 hc         1 70K       0.047200
     48 H16          1.4500     5.9370    -4.2910 hc         1 70K       0.047200
     49 H17          1.2950     4.7060    -7.0660 hc         1 70K       0.052950
     50 H18          2.7420     5.4330    -6.3460 hc         1 70K       0.052950
     51 H19          0.7760     1.1160    -2.3110 ha         1 70K       0.152000
     52 H20         -3.7430    -1.0020    -2.5080 ha         1 70K       0.149000
     53 H21         -3.2370    -1.7110    -0.4470 ho         1 70K       0.421000
     54 H22         -1.8300     0.8980    -6.6130 hn         1 70K       0.346700
     55 H23          3.9760     0.1200     0.2680 ha         1 70K       0.170500
     56 H24          4.1520     2.4740     7.4650 h1         1 70K       0.054700
     57 H25          4.1790     0.7020     7.4960 h1         1 70K       0.054700
     58 H26          5.8900    -0.4550     4.0290 h1         1 70K       0.050450
     59 H27          5.8260     1.3160     4.0040 h1         1 70K       0.050450
     60 H28          2.6750     2.9310    -6.1170 h1         1 70K       0.061200
     61 H29          2.7350     3.7710    -4.5560 h1         1 70K       0.061200
     62 O8          -2.5780    -1.0800    -0.2090 oh         1 70K      -0.467100
     63 C22          2.0810    -0.0940    -1.2650 c3         1 70K       0.076300
@<TRIPOS>BOND
     1    28    29 1   
     2    28    12 1   
     3    23    24 1   
     4    23     5 1   
     5    24     3 2   
     6    29    13 1   
     7    12    11 1   
     8    25     6 2   
     9     5     6 1   
    10     5     4 2   
    11    13    30 1   
    12     3    22 ar  
    13     3     4 ar  
    14     6    32 1   
    15    11    30 1   
    16    11    27 1   
    17    22     2 ar  
    18     4    21 ar  
    19    32    14 1   
    20    32    31 1   
    21     8    27 ar  
    22     8    10 ar  
    23    14    15 1   
    24    27     9 ar  
    25    31    17 1   
    26     2    62 1   
    27     2    20 ar  
    28    10     7 ar  
    29    21    20 ar  
    30    15    16 1   
    31    16    17 1   
    32     9    26 ar  
    33    20     1 1   
    34     7    26 ar  
    35     7    18 1   
    36     1    18 1   
    37     1    19 2   
    38    18    63 1   
    39     8    33 1   
    40     9    34 1   
    41    10    35 1   
    42    63    36 1   
    43    63    37 1   
    44    63    38 1   
    45    12    39 1   
    46    12    40 1   
    47    13    41 1   
    48    13    42 1   
    49    14    43 1   
    50    14    44 1   
    51    15    45 1   
    52    15    46 1   
    53    16    47 1   
    54    16    48 1   
    55    17    49 1   
    56    17    50 1   
    57    21    51 1   
    58    22    52 1   
    59    62    53 1   
    60    23    54 1   
    61    26    55 1   
    62    28    56 1   
    63    28    57 1   
    64    30    58 1   
    65    30    59 1   
    66    31    60 1   
    67    31    61 1   
@<TRIPOS>SUBSTRUCTURE
     1 70K         1 TEMP              0 ****  ****    0 ROOT
