@<TRIPOS>MOLECULE
70K
   63    67     1     0     0
SMALL
bcc


@<TRIPOS>ATOM
      1 C1           0.0000     0.0000     0.0000 c          1 70K       0.602700
      2 C7          -2.0340    -0.5480    -1.3340 ca         1 70K       0.211100
      3 C9          -2.1980    -0.0220    -3.6670 ca         1 70K       0.001000
      4 C10         -0.8490     0.5630    -3.6110 ca         1 70K      -0.160000
      5 C11         -0.6080     1.0080    -4.9200 cc         1 70K      -0.407300
      6 C14          0.6030     1.6720    -5.4140 c          1 70K       0.638300
      7 C16          2.0480     0.0910     1.2100 ca         1 70K      -0.097400
      8 C19          2.0450     0.2220     3.6050 ca         1 70K      -0.120000
      9 C20          4.1260     0.2390     2.3990 ca         1 70K      -0.120000
     10 C21          1.3550     0.1270     2.4130 ca         1 70K      -0.142000
     11 N23          4.1310     0.3790     4.8090 nh         1 70K      -0.357000
     12 C24          3.6880     1.5480     5.5820 c3         1 70K       0.093800
     13 C27          6.3090     0.4740     5.9220 c3         1 70K       0.212900
     14 C31         -0.0900     3.7090    -4.2450 c3         1 70K       0.042500
     15 C32         -0.3800     5.0320    -4.9600 c3         1 70K      -0.040400
     16 C33          0.9370     5.7620    -5.2290 c3         1 70K      -0.027400
     17 C34          1.8190     4.9050    -6.1390 c3         1 70K      -0.040400
     18 N2           1.3480     0.0000     0.0000 n          1 70K       0.029000
     19 O3          -0.6070     0.0000     1.0530 o          1 70K      -0.613100
     20 C4          -0.7380     0.0070    -1.2770 ca         1 70K      -0.185600
     21 C5          -0.1480     0.5590    -2.4020 ca         1 70K      -0.022000
     22 C6          -2.7490    -0.5690    -2.4920 ca         1 70K      -0.191000
     23 N12         -1.7180     0.6980    -5.6380 na         1 70K       0.713800
     24 N13         -2.6070     0.1170    -4.9160 nc         1 70K      -0.448400
     25 O15          1.3630     1.0780    -6.1550 o          1 70K      -0.639100
     26 C17          3.4350     0.1500     1.2060 ca         1 70K      -0.142000
     27 C18          3.4320     0.2810     3.6020 ca         1 70K      -0.004400
     28 C25          4.4340     1.5820     6.9190 c3         1 70K       0.212900
     29 O26          5.8420     1.5990     6.6720 os         1 70K      -0.412600
     30 C28          5.5820     0.4290     4.5750 c3         1 70K       0.093800
     31 C29          2.1360     3.5800    -5.4380 c3         1 70K       0.042500
     32 N30          0.8730     2.9400    -5.0460 n          1 70K      -0.137800
     33 H1           1.5030     0.2530     4.5430 ha         1 70K       0.117000
     34 H2           5.2090     0.2850     2.3960 ha         1 70K       0.117000
     35 H3           0.2730     0.0810     2.4160 ha         1 70K       0.157000
     36 H4           1.4690    -0.6010    -2.0000 h1         1 70K       0.028700
     37 H5           2.3200     0.9020    -1.6180 h1         1 70K       0.028700
     38 H6           2.9970    -0.6520    -1.1110 h1         1 70K       0.028700
     39 H7           2.6230     1.4760     5.7650 h1         1 70K       0.025950
     40 H8           3.9050     2.4510     5.0250 h1         1 70K       0.025950
     41 H9           6.1050    -0.4360     6.4730 h1         1 70K       0.013200
     42 H10          7.3750     0.5710     5.7540 h1         1 70K       0.013200
     43 H11          0.3310     3.9110    -3.2670 h1         1 70K       0.034200
     44 H12         -1.0080     3.1440    -4.1410 h1         1 70K       0.034200
     45 H13         -1.0130     5.6490    -4.3330 hc         1 70K       0.022950
     46 H14         -0.8800     4.8310    -5.9000 hc         1 70K       0.022950
     47 H15          0.7300     6.7080    -5.7150 hc         1 70K       0.019200
     48 H16          1.4500     5.9370    -4.2910 hc         1 70K       0.019200
     49 H17          1.2950     4.7060    -7.0660 hc         1 70K       0.022950
     50 H18          2.7420     5.4330    -6.3460 hc         1 70K       0.022950
     51 H19          0.7760     1.1160    -2.3110 ha         1 70K       0.129000
     52 H20         -3.7430    -1.0020    -2.5080 ha         1 70K       0.125000
     53 H21         -3.2370    -1.7110    -0.4470 ho         1 70K       0.397000
     54 H22         -1.8300     0.8980    -6.6130 hn         1 70K       0.132700
     55 H23          3.9760     0.1200     0.2680 ha         1 70K       0.157000
     56 H24          4.1520     2.4740     7.4650 h1         1 70K       0.013200
     57 H25          4.1790     0.7020     7.4960 h1         1 70K       0.013200
     58 H26          5.8900    -0.4550     4.0290 h1         1 70K       0.025950
     59 H27          5.8260     1.3160     4.0040 h1         1 70K       0.025950
     60 H28          2.6750     2.9310    -6.1170 h1         1 70K       0.034200
     61 H29          2.7350     3.7710    -4.5560 h1         1 70K       0.034200
     62 O8          -2.5780    -1.0800    -0.2090 oh         1 70K      -0.446100
     63 C22          2.0810    -0.0940    -1.2650 c3         1 70K       0.019300
@<TRIPOS>BOND
     1     1    18 1   
     2     1    19 2   
     3     1    20 1   
     4     2    20 ar  
     5     2    22 ar  
     6     2    62 1   
     7     3     4 ar  
     8     3    22 ar  
     9     3    24 2   
    10     4     5 2   
    11     4    21 ar  
    12     5     6 1   
    13     5    23 1   
    14     6    25 2   
    15     6    32 1   
    16     7    10 ar  
    17     7    18 1   
    18     7    26 ar  
    19     8    10 ar  
    20     8    27 ar  
    21     8    33 1   
    22     9    26 ar  
    23     9    27 ar  
    24     9    34 1   
    25    10    35 1   
    26    11    12 1   
    27    11    27 1   
    28    11    30 1   
    29    12    28 1   
    30    12    39 1   
    31    12    40 1   
    32    13    29 1   
    33    13    30 1   
    34    13    41 1   
    35    13    42 1   
    36    14    15 1   
    37    14    32 1   
    38    14    43 1   
    39    14    44 1   
    40    15    16 1   
    41    15    45 1   
    42    15    46 1   
    43    16    17 1   
    44    16    47 1   
    45    16    48 1   
    46    17    31 1   
    47    17    49 1   
    48    17    50 1   
    49    18    63 1   
    50    20    21 ar  
    51    21    51 1   
    52    22    52 1   
    53    23    24 1   
    54    23    54 1   
    55    26    55 1   
    56    28    29 1   
    57    28    56 1   
    58    28    57 1   
    59    30    58 1   
    60    30    59 1   
    61    31    32 1   
    62    31    60 1   
    63    31    61 1   
    64    36    63 1   
    65    37    63 1   
    66    38    63 1   
    67    53    62 1   
@<TRIPOS>SUBSTRUCTURE
     1 70K         1 TEMP              0 ****  ****    0 ROOT
