@<TRIPOS>MOLECULE
molecule
   56    60     1     0     0
SMALL
bcc


@<TRIPOS>ATOM
      1 C1           0.0000     0.0000     0.0000 ca         1 70L      -0.254600
      2 C2          -0.0760    -0.0000    -2.5210 c          1 70L       0.597600
      3 O4           1.1330     0.1030    -2.5850 o          1 70L      -0.601100
      4 C7           1.4000     0.0000     0.0000 ca         1 70L      -0.079000
      5 C9           0.0220    -0.0020     2.4360 ca         1 70L      -0.182300
      6 C11          2.0710     0.0000     1.1870 ca         1 70L      -0.087300
      7 C12          1.3830    -0.0020     2.3990 ca         1 70L      -0.101000
      8 C13         -2.6900    -0.0020     0.0650 ca         1 70L       0.921900
      9 C15         -2.2610    -0.2450    -3.7390 c3         1 70L       0.155800
     10 C16         -0.2880    -0.1300    -5.0220 c3         1 70L       0.155800
     11 C19         -3.8510    -0.4750    -5.8280 ca         1 70L      -0.104500
     12 C20         -3.9210    -0.5420    -7.2060 ca         1 70L      -0.123500
     13 C21         -2.7640    -0.4760    -7.9590 ca         1 70L      -0.123500
     14 C22         -1.5400    -0.3410    -7.3340 ca         1 70L      -0.104500
     15 C27          3.4000     4.8640     1.8130 c3         1 70L      -0.112100
     16 C30          4.1940    -1.1500     0.3760 cy         1 70L      -0.077400
     17 C31          5.2420    -1.2740     1.4950 cy         1 70L      -0.099400
     18 N3          -0.8040    -0.1140    -3.6490 n          1 70L      -0.469800
     19 C5          -0.7520     0.0000    -1.1990 ca         1 70L       0.453800
     20 C6          -0.7030    -0.0060     1.2340 ca         1 70L       0.447600
     21 N8          -2.0730    -0.0010    -1.1120 nb         1 70L      -0.744000
     22 N10         -2.0400    -0.0070     1.2130 nb         1 70L      -0.720000
     23 N14         -4.0730    -0.0020     0.0880 nv         1 70L      -1.060500
     24 C17         -1.4690    -0.2740    -5.9530 ca         1 70L      -0.110800
     25 C18         -2.6250    -0.3400    -5.2000 ca         1 70L      -0.110800
     26 C23          4.1630     1.3510     0.8620 c          1 70L       0.686100
     27 N24          3.6500     2.4610     1.4270 ns         1 70L      -0.581900
     28 O25          5.0960     1.4370     0.0920 o          1 70L      -0.602100
     29 C26          4.1430     3.7820     1.0270 c3         1 70L       0.110000
     30 C28          3.5770     0.0000     1.1880 cy         1 70L      -0.124700
     31 C29          4.1950    -0.6540     2.4350 cy         1 70L      -0.077400
     32 H1           1.9460     0.0010    -0.9360 ha         1 70L       0.201000
     33 H2          -0.4980    -0.0030     3.3860 ha         1 70L       0.153000
     34 H3           1.9410    -0.0020     3.3280 ha         1 70L       0.137000
     35 H4          -2.7230     0.6380    -3.3150 h1         1 70L       0.069700
     36 H5          -2.5670    -1.1550    -3.2380 h1         1 70L       0.069700
     37 H6           0.2120     0.8090    -5.2250 h1         1 70L       0.069700
     38 H7           0.3670    -0.9840    -5.1460 h1         1 70L       0.069700
     39 H8          -4.7580    -0.5270    -5.2370 ha         1 70L       0.132500
     40 H9          -4.8820    -0.6480    -7.6950 ha         1 70L       0.134000
     41 H10         -2.8180    -0.5280    -9.0400 ha         1 70L       0.134000
     42 H11         -0.6340    -0.2890    -7.9250 ha         1 70L       0.132500
     43 H12          3.7890     5.8380     1.5410 hc         1 70L       0.042367
     44 H13          2.3430     4.8190     1.5790 hc         1 70L       0.042367
     45 H14          3.5420     4.7010     2.8740 hc         1 70L       0.042367
     46 H15          4.6180    -0.8240    -0.5670 hc         1 70L       0.064950
     47 H16          3.5450    -2.0150     0.3050 hc         1 70L       0.064950
     48 H17          5.4770    -2.3020     1.7420 hc         1 70L       0.063200
     49 H18          6.1040    -0.6370     1.3410 hc         1 70L       0.063200
     50 H19         -4.5720    -0.8660     0.1600 hn         1 70L       0.444800
     51 H20         -4.5740     0.8640     0.0640 hn         1 70L       0.444800
     52 H21          2.9580     2.3820     2.1460 hn         1 70L       0.315500
     53 H22          5.2040     3.8490     1.2340 h1         1 70L       0.053200
     54 H23          3.9730     3.9240    -0.0340 h1         1 70L       0.053200
     55 H24          4.6190     0.0660     3.1250 hc         1 70L       0.064950
     56 H25          3.5460    -1.3910     2.8930 hc         1 70L       0.064950
@<TRIPOS>BOND
     1    16    17 1
     2    16    30 1
     3    17    31 1
     4    28    26 2
     5    30    26 1
     6    30    31 1
     7    30     6 1
     8     7     6 ar
     9     7     5 ar
    10    26    27 1
    11     6     4 ar
    12     5    20 ar
    13    27    29 1
    14    29    15 1
    15     4     1 ar
    16    20     1 ar
    17    20    22 ar
    18     1    19 ar
    19    22     8 ar
    20    14    13 ar
    21    14    24 ar
    22    13    12 ar
    23    19     2 1
    24    19    21 ar
    25     8    21 ar
    26     8    23 1
    27    24    10 1
    28    24    25 ar
    29    10    18 1
    30    12    11 ar
    31     2    18 1
    32     2     3 2
    33    18     9 1
    34    25    11 ar
    35    25     9 1
    36     4    32 1
    37     5    33 1
    38     7    34 1
    39     9    35 1
    40     9    36 1
    41    10    37 1
    42    10    38 1
    43    11    39 1
    44    12    40 1
    45    13    41 1
    46    14    42 1
    47    15    43 1
    48    15    44 1
    49    15    45 1
    50    16    46 1
    51    16    47 1
    52    17    48 1
    53    17    49 1
    54    23    50 1
    55    23    51 1
    56    27    52 1
    57    29    53 1
    58    29    54 1
    59    31    55 1
    60    31    56 1
@<TRIPOS>SUBSTRUCTURE
     1 70L         1 TEMP              0 ****  ****    0 ROOT
