@<TRIPOS>MOLECULE
70M
   55    59     1     0     0
SMALL
bcc


@<TRIPOS>ATOM
      1 C1           0.0000     0.0000     0.0000 ca         1 70M      -0.108000
      2 C2           1.4100     0.0000     0.0000 ca         1 70M      -0.144000
      3 C3          -0.4050    -0.0000     1.4100 c2         1 70M      -0.139000
      4 C7           0.7200    -0.0010     2.1400 c2         1 70M      -0.241000
      5 C8          -1.8160    -0.0010     1.9370 c3         1 70M       0.007000
      6 C9           0.0000    -0.0090    -2.4060 ca         1 70M       0.007000
      7 C10          1.4070     0.0000    -2.4010 ca         1 70M       0.094000
      8 C11         -2.3370    -1.4380     1.9980 c3         1 70M      -0.148000
      9 C12         -0.3200    -0.4670    -3.8850 c1         1 70M      -0.079000
     10 C14         -3.7710    -1.4380     2.5340 c3         1 70M      -0.416000
     11 C16         -4.2930    -2.8750     2.5930 c3         1 70M      -0.186000
     12 C19         -6.2860    -4.2010     2.9580 c3         1 70M      -0.579000
     13 C20         -7.1620    -2.3720     4.9810 c3         1 70M      -0.507000
     14 C21         -7.7410    -4.1380     3.4320 c3         1 70M      -0.507000
     15 C24         -9.8430    -4.8620     5.2710 ca         1 70M      -0.070000
     16 C27        -10.9140    -2.5290     6.3380 ca         1 70M      -0.076000
     17 C4          -0.7000    -0.0050    -1.2030 ca         1 70M       0.022000
     18 N5           1.8140     0.0000     1.3140 na         1 70M       0.334000
     19 C6           2.1000     0.0000    -1.2080 ca         1 70M      -0.168000
     20 O13          2.0870    -0.0040    -3.5760 oh         1 70M      -0.239000
     21 N15         -0.3710    -0.6210    -5.0950 n1         1 70M      -0.093000
     22 N17         -5.6690    -2.8750     3.1080 nx         1 70M       2.091000
     23 C18         -5.7080    -2.4330     4.5080 c3         1 70M      -0.579000
     24 N22         -7.7800    -3.6960     4.8330 nh         1 70M       1.882000
     25 C23         -9.0830    -3.6970     5.3200 ca         1 70M      -0.366000
     26 C25         -9.6250    -2.5320     5.8560 ca         1 70M      -0.070000
     27 C26        -11.1350    -4.8650     5.7460 ca         1 70M      -0.076000
     28 C28        -11.6810    -3.6960     6.2860 ca         1 70M       0.050000
     29 C29        -13.0230    -3.6960     6.7870 c1         1 70M      -0.105000
     30 N30        -14.0800    -3.7000     7.2020 n1         1 70M      -0.046000
     31 H1           0.7770    -0.0370     3.2210 h4         1 70M       0.144000
     32 H2          -1.8210     0.3620     2.9580 hc         1 70M       0.058000
     33 H3          -2.4310     0.6440     1.3210 hc         1 70M       0.058000
     34 H4          -1.5220    -2.1080     2.2410 hc         1 70M       0.075000
     35 H5          -2.7540    -1.7120     1.0360 hc         1 70M       0.075000
     36 H6          -3.8350    -0.7820     3.3940 hc         1 70M       0.101500
     37 H7          -4.0470    -2.4440     2.8250 hc         1 70M       0.101500
     38 H8          -5.2670    -2.9250     2.1210 DU         1 70M      -0.045000
     39 H9          -3.6050    -3.5310     2.0740 hx         1 70M       0.156000
     40 H10         -6.2590    -4.6360     1.9670 hx         1 70M      -0.175500
     41 H11         -5.8880    -3.1940     2.9170 hx         1 70M      -0.175500
     42 H12         -7.5600    -3.3780     5.0230 h1         1 70M      -0.141500
     43 H13         -7.1890    -1.9360     5.9730 h1         1 70M      -0.141500
     44 H14         -7.7540    -3.9720     4.5020 h1         1 70M      -0.141500
     45 H15         -8.2220    -5.0840     3.2120 h1         1 70M      -0.141500
     46 H16         -9.4570    -5.7390     4.7650 ha         1 70M       0.129500
     47 H17        -11.3340    -1.6210     6.7550 ha         1 70M       0.116500
     48 H18         -1.7830    -0.0050    -1.2000 ha         1 70M       0.115000
     49 H19          2.7610     0.0000     1.6380 hn         1 70M       0.068000
     50 H20          3.1830     0.0000    -1.2140 ha         1 70M       0.115000
     51 H21          2.5360     0.8180    -3.6830 ho         1 70M       0.207000
     52 H23         -5.2270    -1.4880     4.7290 hx         1 70M      -0.175500
     53 H24         -5.6940    -2.6000     3.4380 hx         1 70M      -0.175500
     54 H25         -9.0290    -1.6280     5.8960 ha         1 70M       0.129500
     55 H26        -11.7240    -5.7730     5.7070 ha         1 70M       0.116500
@<TRIPOS>BOND
     1     1     2 1   
     2     1     3 1   
     3     1    17 1   
     4     2    18 1   
     5     2    19 1   
     6     3     4 1   
     7     3     5 1   
     8     4    18 1   
     9     4    31 1   
    10     5     8 1   
    11     5    32 1   
    12     5    33 1   
    13     6     7 1   
    14     6     9 1   
    15     6    17 1   
    16     7    19 1   
    17     7    20 1   
    18     8    10 1   
    19     8    34 1   
    20     8    35 1   
    21     9    21 1   
    22    10    11 1   
    23    10    36 1   
    24    10    37 1   
    25    11    22 1   
    26    11    38 1   
    27    11    39 1   
    28    12    14 1   
    29    12    22 1   
    30    12    40 1   
    31    12    41 1   
    32    13    23 1   
    33    13    24 1   
    34    13    42 1   
    35    13    43 1   
    36    14    24 1   
    37    14    44 1   
    38    14    45 1   
    39    15    25 1   
    40    15    27 1   
    41    15    46 1   
    42    16    26 1   
    43    16    28 1   
    44    16    47 1   
    45    17    48 1   
    46    18    49 1   
    47    19    50 1   
    48    20    51 1   
    49    22    23 1   
    50    22    38 1   
    51    23    52 1   
    52    23    53 1   
    53    24    25 1   
    54    25    26 1   
    55    26    54 1   
    56    27    28 1   
    57    27    55 1   
    58    28    29 1   
    59    29    30 1   
@<TRIPOS>SUBSTRUCTURE
     1 70M         1 TEMP              0 ****  ****    0 ROOT
