@<TRIPOS>MOLECULE
molecule
   66    71     1     0     0
SMALL
bcc


@<TRIPOS>ATOM
      1 C2           0.0000     0.0000     0.0000 cp         1 70N      -0.115000
      2 C3          -0.7340     0.0050    -1.2890 cp         1 70N       0.091000
      3 C7          -1.1850     1.0160    -3.4200 ca         1 70N      -0.062000
      4 C8          -0.5000     1.0130    -2.2230 ca         1 70N      -0.292500
      5 C14         -0.6190     4.5370    -2.6900 c3         1 70N       0.234300
      6 C15          0.0250     5.9170    -2.8680 c3         1 70N       0.153300
      7 C19          1.1330     7.3530    -4.4710 c3         1 70N       0.153100
      8 C20         -0.0030    -0.0050     2.4010 ca         1 70N      -0.295600
      9 C24         -0.6670    -0.0060     3.6510 ca         1 70N       0.489800
     10 N29          2.0670     0.0060     3.5610 nb         1 70N      -0.782000
     11 C30          1.4050     0.0000     0.0000 ca         1 70N      -0.099000
     12 C31          1.3960     0.0050     4.6980 ca         1 70N       0.943900
     13 C33         -2.1140     0.2390     6.2280 c3         1 70N       0.155800
     14 C34         -4.2100     0.1130     5.1600 c3         1 70N       0.155800
     15 C35         -4.4270     0.2610     6.6470 ca         1 70N      -0.111300
     16 N1           0.4000     3.5090    -2.9530 n3         1 70N      -0.825500
     17 C4          -1.6570    -1.0000    -1.5720 ca         1 70N      -0.150000
     18 C5          -2.3390    -0.9910    -2.7730 ca         1 70N       0.147900
     19 C6          -2.1040     0.0180    -3.6970 ca         1 70N       0.075900
     20 S9           0.6690     2.2840    -1.8740 sy         1 70N       1.430200
     21 O10          0.3330     2.7980    -0.5910 o          1 70N      -0.629300
     22 O11          1.9480     1.7490    -2.1850 o          1 70N      -0.629300
     23 F12         -3.2330    -1.9650    -3.0490 f          1 70N      -0.119900
     24 F13         -2.7730     0.0240    -4.8710 f          1 70N      -0.126900
     25 N16          0.6550     5.9920    -4.1930 n3         1 70N      -0.732600
     26 C17          1.7440     5.0150    -4.3210 c3         1 70N       0.153300
     27 C18          1.1720     3.5990    -4.2020 c3         1 70N       0.234300
     28 N22         -2.7630     0.1030     4.9210 n          1 70N      -0.467800
     29 O23         -2.8080    -0.1200     2.7110 o          1 70N      -0.605100
     30 C25          1.4170     0.0000     2.3930 ca         1 70N       0.499600
     31 C26         -0.7040     0.0000     1.1910 ca         1 70N      -0.030000
     32 N27          0.0690     0.0000     4.7530 nb         1 70N      -0.786000
     33 C28          2.1030     0.0000     1.1660 ca         1 70N      -0.181300
     34 N32          2.1080     0.0110     5.8850 nv         1 70N      -0.994500
     35 C36         -3.1970     0.3350     7.2720 ca         1 70N      -0.111300
     36 C37         -3.1280     0.4750     8.6480 ca         1 70N      -0.104500
     37 C38         -4.2880     0.5390     9.3960 ca         1 70N      -0.122500
     38 C39         -5.5190     0.4640     8.7710 ca         1 70N      -0.122500
     39 C40         -5.5880     0.3260     7.3990 ca         1 70N      -0.104500
     40 H1          -1.0040     1.8000    -4.1450 ha         1 70N       0.158000
     41 H2          -0.9840     4.4350    -1.6760 h1         1 70N       0.063200
     42 H3          -1.4370     4.4250    -3.3910 h1         1 70N       0.063200
     43 H4           0.7770     6.0650    -2.1030 h1         1 70N       0.044200
     44 H5          -0.7370     6.6830    -2.7880 h1         1 70N       0.044200
     45 H6           1.5610     7.3890    -5.4660 h1         1 70N       0.034033
     46 H7           0.3040     8.0470    -4.4100 h1         1 70N       0.034033
     47 H8           1.8880     7.6260    -3.7440 h1         1 70N       0.034033
     48 H9           1.9400    -0.0130    -0.9420 ha         1 70N       0.168000
     49 H10         -1.5280     1.1510     6.2390 h1         1 70N       0.068700
     50 H11         -1.5130    -0.6420     6.4200 h1         1 70N       0.068700
     51 H12         -4.6310    -0.8290     4.8320 h1         1 70N       0.068700
     52 H13         -4.6470     0.9630     4.6510 h1         1 70N       0.068700
     53 H14         -1.8400    -1.7880    -0.8510 ha         1 70N       0.168000
     54 H16          2.4680     5.1780    -3.5320 h1         1 70N       0.044200
     55 H17          2.2210     5.1310    -5.2860 h1         1 70N       0.044200
     56 H18          1.9830     2.8810    -4.1810 h1         1 70N       0.063200
     57 H19          0.5230     3.3980    -5.0460 h1         1 70N       0.063200
     58 H20         -1.7760     0.1580     1.1870 ha         1 70N       0.192000
     59 H21          3.1860    -0.0000     1.1500 ha         1 70N       0.158000
     60 H22          3.0740     0.2730     5.8880 hn         1 70N       0.450800
     61 H23          1.6590    -0.2570     6.7380 hn         1 70N       0.450800
     62 H24         -2.1640     0.5330     9.1380 ha         1 70N       0.132000
     63 H25         -4.2320     0.6470    10.4720 ha         1 70N       0.134500
     64 H26         -6.4280     0.5150     9.3580 ha         1 70N       0.134500
     65 H27         -6.5520     0.2680     6.9090 ha         1 70N       0.132000
     66 C21         -2.1480    -0.0120     3.7270 c          1 70N       0.599600
@<TRIPOS>BOND
     1    24    19 1   
     2    19     3 ar  
     3    19    18 ar  
     4    23    18 1   
     5     3     4 ar  
     6    18    17 ar  
     7    21    20 2   
     8    22    20 2   
     9     4    20 1   
    10     4     2 ar  
    11    17     2 ar  
    12    20    16 1   
    13     2     1 1   
    14    11     1 ar  
    15    11    33 ar  
    16     1    31 ar  
    17    33    30 ar  
    18    16     5 1   
    19    16    27 1   
    20    31     8 ar  
    21    30     8 ar  
    22    30    10 ar  
    23     5     6 1   
    24    27    26 1   
    25     8     9 ar  
    26    10    12 ar  
    27    39    38 ar  
    28    39    15 ar  
    29    38    37 ar  
    30     6    25 1   
    31    26    25 1   
    32     9    32 ar  
    33     9    66 1   
    34    12    32 ar  
    35    12    34 1   
    36    15    14 1   
    37    15    35 ar  
    38    14    28 1   
    39    37    36 ar  
    40    25     7 1   
    41    66    28 1   
    42    66    29 2   
    43    28    13 1   
    44    35    36 ar  
    45    35    13 1   
    46     3    40 1   
    47     5    41 1   
    48     5    42 1   
    49     6    43 1   
    50     6    44 1   
    51     7    45 1   
    52     7    46 1   
    53     7    47 1   
    54    11    48 1   
    55    13    49 1   
    56    13    50 1   
    57    14    51 1   
    58    14    52 1   
    59    17    53 1   
    60    26    54 1   
    61    26    55 1   
    62    27    56 1   
    63    27    57 1   
    64    31    58 1   
    65    33    59 1   
    66    34    60 1   
    67    34    61 1   
    68    36    62 1   
    69    37    63 1   
    70    38    64 1   
    71    39    65 1   
@<TRIPOS>SUBSTRUCTURE
     1 70N         1 TEMP              0 ****  ****    0 ROOT
