@<TRIPOS>MOLECULE
70N
   66    71     1     0     0
SMALL
bcc


@<TRIPOS>ATOM
      1 C2           0.0000     0.0000     0.0000 cp         1 70N      -0.109000
      2 C3          -0.7340     0.0050    -1.2890 cp         1 70N       0.114000
      3 C7          -1.1850     1.0160    -3.4200 ca         1 70N      -0.032000
      4 C8          -0.5000     1.0130    -2.2230 ca         1 70N      -0.134500
      5 C14         -0.6190     4.5370    -2.6900 c3         1 70N       0.232300
      6 C15          0.0250     5.9170    -2.8680 c3         1 70N       0.140300
      7 C19          1.1330     7.3530    -4.4710 c3         1 70N       0.190100
      8 C20         -0.0030    -0.0050     2.4010 ca         1 70N      -0.282600
      9 C24         -0.6670    -0.0060     3.6510 ca         1 70N       0.432800
     10 N29          2.0670     0.0060     3.5610 nb         1 70N      -0.679000
     11 C30          1.4050     0.0000     0.0000 ca         1 70N      -0.070000
     12 C31          1.3960     0.0050     4.6980 ca         1 70N       0.702900
     13 C33         -2.1140     0.2390     6.2280 c3         1 70N       0.116300
     14 C34         -4.2100     0.1130     5.1600 c3         1 70N       0.116300
     15 C35         -4.4270     0.2610     6.6470 ca         1 70N      -0.116800
     16 N1           0.4000     3.5090    -2.9530 n3         1 70N      -0.536500
     17 C4          -1.6570    -1.0000    -1.5720 ca         1 70N      -0.127000
     18 C5          -2.3390    -0.9910    -2.7730 ca         1 70N       0.129900
     19 C6          -2.1040     0.0180    -3.6970 ca         1 70N       0.049900
     20 S9           0.6690     2.2840    -1.8740 sy         1 70N       1.057200
     21 O10          0.3330     2.7980    -0.5910 o          1 70N      -0.582800
     22 O11          1.9480     1.7490    -2.1850 o          1 70N      -0.582800
     23 F12         -3.2330    -1.9650    -3.0490 f          1 70N      -0.111900
     24 F13         -2.7730     0.0240    -4.8710 f          1 70N      -0.114900
     25 N16          0.6550     5.9920    -4.1930 n3         1 70N      -0.546600
     26 C17          1.7440     5.0150    -4.3210 c3         1 70N       0.140300
     27 C18          1.1720     3.5990    -4.2020 c3         1 70N       0.232300
     28 N22         -2.7630     0.1030     4.9210 n          1 70N      -0.123800
     29 O23         -2.8080    -0.1200     2.7110 o          1 70N      -0.655100
     30 C25          1.4170     0.0000     2.3930 ca         1 70N       0.453600
     31 C26         -0.7040     0.0000     1.1910 ca         1 70N      -0.022000
     32 N27          0.0690     0.0000     4.7530 nb         1 70N      -0.676000
     33 C28          2.1030     0.0000     1.1660 ca         1 70N      -0.162300
     34 N32          2.1080     0.0110     5.8850 nv         1 70N      -0.509500
     35 C36         -3.1970     0.3350     7.2720 ca         1 70N      -0.116800
     36 C37         -3.1280     0.4750     8.6480 ca         1 70N      -0.069500
     37 C38         -4.2880     0.5390     9.3960 ca         1 70N      -0.097500
     38 C39         -5.5190     0.4640     8.7710 ca         1 70N      -0.097500
     39 C40         -5.5880     0.3260     7.3990 ca         1 70N      -0.069500
     40 H1          -1.0040     1.8000    -4.1450 ha         1 70N       0.129000
     41 H2          -0.9840     4.4350    -1.6760 h1         1 70N       0.028950
     42 H3          -1.4370     4.4250    -3.3910 h1         1 70N       0.028950
     43 H4           0.7770     6.0650    -2.1030 h1         1 70N       0.016450
     44 H5          -0.7370     6.6830    -2.7880 h1         1 70N       0.016450
     45 H6           1.5610     7.3890    -5.4660 h1         1 70N       0.000700
     46 H7           0.3040     8.0470    -4.4100 h1         1 70N       0.000700
     47 H8           1.8880     7.6260    -3.7440 h1         1 70N       0.000700
     48 H9           1.9400    -0.0130    -0.9420 ha         1 70N       0.145000
     49 H10         -1.5280     1.1510     6.2390 h1         1 70N       0.035200
     50 H11         -1.5130    -0.6420     6.4200 h1         1 70N       0.035200
     51 H12         -4.6310    -0.8290     4.8320 h1         1 70N       0.035200
     52 H13         -4.6470     0.9630     4.6510 h1         1 70N       0.035200
     53 H14         -1.8400    -1.7880    -0.8510 ha         1 70N       0.139000
     54 H16          2.4680     5.1780    -3.5320 h1         1 70N       0.016450
     55 H17          2.2210     5.1310    -5.2860 h1         1 70N       0.016450
     56 H18          1.9830     2.8810    -4.1810 h1         1 70N       0.028950
     57 H19          0.5230     3.3980    -5.0460 h1         1 70N       0.028950
     58 H20         -1.7760     0.1580     1.1870 ha         1 70N       0.171000
     59 H21          3.1860    -0.0000     1.1500 ha         1 70N       0.123000
     60 H22          3.0740     0.2730     5.8880 hn         1 70N       0.275300
     61 H23          1.6590    -0.2570     6.7380 hn         1 70N       0.275300
     62 H24         -2.1640     0.5330     9.1380 ha         1 70N       0.104000
     63 H25         -4.2320     0.6470    10.4720 ha         1 70N       0.105500
     64 H26         -6.4280     0.5150     9.3580 ha         1 70N       0.105500
     65 H27         -6.5520     0.2680     6.9090 ha         1 70N       0.104000
     66 C21         -2.1480    -0.0120     3.7270 c          1 70N       0.519600
@<TRIPOS>BOND
     1     1     2 1   
     2     1    11 ar  
     3     1    31 ar  
     4     2     4 ar  
     5     2    17 ar  
     6     3     4 ar  
     7     3    19 ar  
     8     3    40 1   
     9     4    20 1   
    10     5     6 1   
    11     5    16 1   
    12     5    41 1   
    13     5    42 1   
    14     6    25 1   
    15     6    43 1   
    16     6    44 1   
    17     7    25 1   
    18     7    45 1   
    19     7    46 1   
    20     7    47 1   
    21     8     9 ar  
    22     8    30 ar  
    23     8    31 ar  
    24     9    32 ar  
    25     9    66 1   
    26    10    12 ar  
    27    10    30 ar  
    28    11    33 ar  
    29    11    48 1   
    30    12    32 ar  
    31    12    34 1   
    32    13    28 1   
    33    13    35 1   
    34    13    49 1   
    35    13    50 1   
    36    14    15 1   
    37    14    28 1   
    38    14    51 1   
    39    14    52 1   
    40    15    35 ar  
    41    15    39 ar  
    42    16    20 1   
    43    16    27 1   
    44    17    18 ar  
    45    17    53 1   
    46    18    19 ar  
    47    18    23 1   
    48    19    24 1   
    49    20    21 2   
    50    20    22 2   
    51    25    26 1   
    52    26    27 1   
    53    26    54 1   
    54    26    55 1   
    55    27    56 1   
    56    27    57 1   
    57    28    66 1   
    58    29    66 2   
    59    30    33 ar  
    60    31    58 1   
    61    33    59 1   
    62    34    60 1   
    63    34    61 1   
    64    35    36 ar  
    65    36    37 ar  
    66    36    62 1   
    67    37    38 ar  
    68    37    63 1   
    69    38    39 ar  
    70    38    64 1   
    71    39    65 1   
@<TRIPOS>SUBSTRUCTURE
     1 70N         1 TEMP              0 ****  ****    0 ROOT
