@<TRIPOS>MOLECULE
molecule
   69    72     1     0     0
SMALL
bcc


@<TRIPOS>ATOM
      1 C1           0.0000     0.0000     0.0000 ca         1 70O      -0.171500
      2 C2           1.3890     0.0000     0.0000 ca         1 70O       0.060600
      3 C3           2.0800     0.0000     1.2050 ca         1 70O      -0.171500
      4 C7          -0.7520    -0.0000     3.6990 c3         1 70O      -0.022400
      5 C9           1.3690     0.1720    -2.4740 c3         1 70O       0.074300
      6 C10          3.4280    -0.1590    -1.2140 c          1 70O       0.684700
      7 C12          4.1760    -0.0710    -2.4800 ca         1 70O      -0.196600
      8 C13          3.6480     0.6530    -3.5320 ca         1 70O      -0.007000
      9 C14          6.1520    -0.6690    -3.7410 ca         1 70O      -0.244000
     10 C15          5.4260    -0.7230    -2.5950 ca         1 70O       0.215100
     11 C19          4.1410     1.3550    -5.9610 cc         1 70O      -0.036300
     12 C22          2.9370     2.1830    -6.3300 c3         1 70O      -0.030200
     13 C24          1.9270     4.4670    -6.2400 c3         1 70O      -0.073000
     14 C31          2.1380     5.9090    -5.7720 c3         1 70O      -0.083767
     15 C32          0.6820     3.8890    -5.5620 c3         1 70O      -0.083767
     16 C33          1.7390     4.4440    -7.7580 c3         1 70O      -0.083767
     17 C4           1.3850     0.0000     2.3980 ca         1 70O      -0.104500
     18 C5           0.0030     0.0000     2.3950 ca         1 70O      -0.106300
     19 C6          -0.6890     0.0060     1.1980 ca         1 70O      -0.104500
     20 N8           2.0900    -0.0000    -1.2100 n          1 70O      -0.373000
     21 O11          4.0180    -0.3760    -0.1720 o          1 70O      -0.572100
     22 O16          5.9110    -1.4190    -1.5360 oh         1 70O      -0.463100
     23 C17          5.6600     0.0500    -4.8530 ca         1 70O       0.018000
     24 C18          4.3620     0.7370    -4.7400 ca         1 70O      -0.234000
     25 N20          5.1860     1.0860    -6.7520 na         1 70O       0.030800
     26 N21          6.1100     0.2870    -6.0710 nc         1 70O      -0.286400
     27 C23          3.1480     3.6260    -5.8640 c3         1 70O      -0.068400
     28 C25         -1.6390     1.2450     3.7770 c3         1 70O      -0.071400
     29 C26         -2.4490     1.2080     5.0760 c3         1 70O       0.162300
     30 N27         -3.2750    -0.0060     5.1040 n3         1 70O      -0.731600
     31 C28         -2.4420    -1.2150     5.0780 c3         1 70O       0.162300
     32 C29         -1.6330    -1.2500     3.7800 c3         1 70O      -0.071400
     33 H1          -0.5420     0.0020    -0.9380 ha         1 70O       0.165500
     34 H2           3.1640     0.0000     1.2080 ha         1 70O       0.165500
     35 H3          -0.0540     0.0020     4.5270 hc         1 70O       0.052700
     36 H4           1.9270    -0.2960    -3.2750 h1         1 70O       0.050033
     37 H5           0.3910    -0.2880    -2.3980 h1         1 70O       0.050033
     38 H6           1.2550     1.2290    -2.6830 h1         1 70O       0.050033
     39 H7           2.7660     1.2630    -3.3810 ha         1 70O       0.148000
     40 H8           7.1060    -1.1780    -3.8030 ha         1 70O       0.146000
     41 H9           2.0560     1.7740    -5.8520 hc         1 70O       0.062200
     42 H10          2.8040     2.1680    -7.4050 hc         1 70O       0.062200
     43 H11         -4.7900    -0.8930     6.2480 h1         1 70O       0.030700
     44 H12         -4.7950     0.8760     6.2460 h1         1 70O       0.030700
     45 H13         -3.5760    -0.0040     7.1780 h1         1 70O       0.030700
     46 H14          2.2810     5.9230    -4.6990 hc         1 70O       0.036700
     47 H15          3.0140     6.3210    -6.2590 hc         1 70O       0.036700
     48 H16          1.2690     6.5020    -6.0290 hc         1 70O       0.036700
     49 H17          0.4270     2.9430    -6.0240 hc         1 70O       0.036700
     50 H18          0.8830     3.7340    -4.5090 hc         1 70O       0.036700
     51 H19         -0.1440     4.5800    -5.6750 hc         1 70O       0.036700
     52 H20          1.3050     3.4970    -8.0540 hc         1 70O       0.036700
     53 H21          1.0790     5.2520    -8.0520 hc         1 70O       0.036700
     54 H22          2.7000     4.5690    -8.2420 hc         1 70O       0.036700
     55 H23          1.9240     0.0000     3.3380 ha         1 70O       0.133500
     56 H24         -1.7730     0.0060     1.1990 ha         1 70O       0.133500
     57 H25          6.6500    -1.9370    -1.8110 ho         1 70O       0.421000
     58 H26          5.2910     1.4080    -7.6940 hn         1 70O       0.332700
     59 H27          4.0300     4.0350    -6.3420 hc         1 70O       0.052200
     60 H28          3.2800     3.6410    -4.7890 hc         1 70O       0.052200
     61 H29         -2.3150     1.2600     2.9310 hc         1 70O       0.051700
     62 H30         -1.0170     2.1320     3.7660 hc         1 70O       0.051700
     63 H31         -3.0890     2.0800     5.1250 h1         1 70O       0.032450
     64 H32         -1.7720     1.2020     5.9210 h1         1 70O       0.032450
     65 H34         -3.0780    -2.0910     5.1300 h1         1 70O       0.032450
     66 H35         -1.7650    -1.2040     5.9240 h1         1 70O       0.032450
     67 H36         -1.0060    -2.1340     3.7700 hc         1 70O       0.051700
     68 H37         -2.3090    -1.2700     2.9340 hc         1 70O       0.051700
     69 C30         -4.1680    -0.0060     6.2710 c3         1 70O       0.153100
@<TRIPOS>BOND
     1    69    30 1   
     2    29    30 1   
     3    29    28 1   
     4    30    31 1   
     5    26    25 1   
     6    26    23 2   
     7    25    11 1   
     8    31    32 1   
     9    28     4 1   
    10    23     9 ar  
    11    23    24 ar  
    12    11    12 1   
    13    11    24 2   
    14     4    32 1   
    15     4    18 1   
    16    12    27 1   
    17     9    10 ar  
    18    14    13 1   
    19    24     8 ar  
    20    17    18 ar  
    21    17     3 ar  
    22    18    19 ar  
    23    27    13 1   
    24    10    22 1   
    25    10     7 ar  
    26    13    15 1   
    27    13    16 1   
    28     3     2 ar  
    29     8     7 ar  
    30    19     1 ar  
    31     7     6 1   
    32     2     1 ar  
    33     2    20 1   
    34     6    20 1   
    35     6    21 2   
    36    20     5 1   
    37     1    33 1   
    38     3    34 1   
    39     4    35 1   
    40     5    36 1   
    41     5    37 1   
    42     5    38 1   
    43     8    39 1   
    44     9    40 1   
    45    12    41 1   
    46    12    42 1   
    47    69    43 1   
    48    69    44 1   
    49    69    45 1   
    50    14    46 1   
    51    14    47 1   
    52    14    48 1   
    53    15    49 1   
    54    15    50 1   
    55    15    51 1   
    56    16    52 1   
    57    16    53 1   
    58    16    54 1   
    59    17    55 1   
    60    19    56 1   
    61    22    57 1   
    62    25    58 1   
    63    27    59 1   
    64    27    60 1   
    65    28    61 1   
    66    28    62 1   
    67    29    63 1   
    68    29    64 1   
    69    31    65 1   
    70    31    66 1   
    71    32    67 1   
    72    32    68 1   
@<TRIPOS>SUBSTRUCTURE
     1 70O         1 TEMP              0 ****  ****    0 ROOT
