@<TRIPOS>MOLECULE
molecule
   46    48     1     0     0
SMALL
bcc


@<TRIPOS>ATOM
      1 C1           0.0000     0.0000     0.0000 ca         1 70P      -0.124000
      2 C2           1.3830     0.0000     0.0000 ca         1 70P      -0.127000
      3 C3           2.0750     0.0000     1.1960 ca         1 70P      -0.124000
      4 O1          -6.8750     4.7080     4.6010 os         1 70P      -0.383900
      5 C11         -2.3880     1.7280     7.0220 ca         1 70P       0.520200
      6 C12         -5.6960     4.5110     6.6390 c3         1 70P       0.060700
      7 C13         -6.8860     5.2200     5.9640 c3         1 70P       0.123400
      8 C14         -5.8650     3.8420     4.4570 c          1 70P       0.822600
      9 C15         -4.6600     5.5320     7.1130 c3         1 70P      -0.095700
     10 C16         -4.1890     6.3700     5.9230 c3         1 70P      -0.094100
     11 C17         -5.2890     6.4480     8.1640 c3         1 70P      -0.094100
     12 C18         -1.2230    -1.4220     4.0160 c3         1 70P      -0.106100
     13 C4           1.3840     0.0000     2.3940 ca         1 70P      -0.120500
     14 C5           0.0010     0.0000     2.3940 ca         1 70P      -0.099300
     15 C6          -0.6900     0.0060     1.1980 ca         1 70P      -0.120500
     16 C7          -0.7510    -0.0010     3.7000 c3         1 70P       0.295800
     17 N1          -1.9120     0.8870     3.5950 nu         1 70P      -0.887900
     18 N2          -1.9020     1.1960     5.9100 nb         1 70P      -0.825000
     19 C8          -2.4500     1.4610     4.7330 ca         1 70P       0.973900
     20 N3          -3.4990     2.2620     4.6190 nb         1 70P      -0.804000
     21 C9          -4.0380     2.8280     5.6930 ca         1 70P       0.664200
     22 C10         -3.4830     2.5690     6.9470 ca         1 70P      -0.491600
     23 N4          -5.1390     3.6680     5.5700 n          1 70P      -0.484300
     24 H1          -0.5420     0.0020    -0.9380 ha         1 70P       0.131500
     25 H2           1.9240    -0.0020    -0.9380 ha         1 70P       0.130000
     26 H3           3.1580    -0.0000     1.1950 ha         1 70P       0.131500
     27 H4          -1.9330     1.5050     7.9790 h4         1 70P       0.027100
     28 H5          -6.0390     3.8980     7.4640 h1         1 70P       0.073700
     29 H6          -7.7860     4.8430     6.4350 h1         1 70P       0.086700
     30 H7          -6.6350     6.2720     5.9080 h1         1 70P       0.086700
     31 H8          -3.8130     5.0130     7.5470 hc         1 70P       0.071700
     32 H9          -3.2650     6.8750     6.1790 hc         1 70P       0.042700
     33 H10         -4.9450     7.1050     5.6770 hc         1 70P       0.042700
     34 H11         -4.0220     5.7240     5.0690 hc         1 70P       0.042700
     35 H12         -5.9130     7.1860     7.6740 hc         1 70P       0.042700
     36 H13         -4.5070     6.9500     8.7220 hc         1 70P       0.042700
     37 H14         -5.8940     5.8580     8.8420 hc         1 70P       0.042700
     38 H15         -0.4700    -2.1320     3.6960 hc         1 70P       0.045700
     39 H16         -1.3830    -1.5210     5.0830 hc         1 70P       0.045700
     40 H17         -2.1510    -1.6190     3.4920 hc         1 70P       0.045700
     41 H18          1.9260    -0.0020     3.3320 ha         1 70P       0.132500
     42 H19         -1.7740     0.0060     1.1980 ha         1 70P       0.132500
     43 H20         -0.1000     0.3480     4.4930 h1         1 70P       0.083700
     44 H21         -2.3060     1.0920     2.6980 hn         1 70P       0.465800
     45 H22         -3.9000     3.0170     7.8410 ha         1 70P       0.141000
     46 O2          -5.6280     3.2670     3.4130 o          1 70P      -0.568500
@<TRIPOS>BOND
     1    12    16 1   
     2    16    17 1   
     3    16    14 1   
     4    17    19 1   
     5    19    18 ar  
     6    19    20 ar  
     7    18     5 ar  
     8    20    21 ar  
     9     5    22 ar  
    10    14    13 ar  
    11    14    15 ar  
    12     6     7 1   
    13     6    23 1   
    14     6     9 1   
    15    11     9 1   
    16    13     3 ar  
    17    21    22 ar  
    18    21    23 1   
    19     7     4 1   
    20    23     8 1   
    21     9    10 1   
    22    15     1 ar  
    23     4     8 1   
    24     3     2 ar  
    25     8    46 2   
    26     1     2 ar  
    27     1    24 1   
    28     2    25 1   
    29     3    26 1   
    30     5    27 1   
    31     6    28 1   
    32     7    29 1   
    33     7    30 1   
    34     9    31 1   
    35    10    32 1   
    36    10    33 1   
    37    10    34 1   
    38    11    35 1   
    39    11    36 1   
    40    11    37 1   
    41    12    38 1   
    42    12    39 1   
    43    12    40 1   
    44    13    41 1   
    45    15    42 1   
    46    16    43 1   
    47    17    44 1   
    48    22    45 1   
@<TRIPOS>SUBSTRUCTURE
     1 70P         1 TEMP              0 ****  ****    0 ROOT
