@<TRIPOS>MOLECULE
molecule
   55    58     1     0     0
SMALL
bcc


@<TRIPOS>ATOM
      1 C1           0.0000     0.0000     0.0000 cc         1 70Q       0.312900
      2 C2           1.5210    -0.0010     2.3060 c          1 70Q       0.678100
      3 C3          -0.7470     0.0020    -1.2730 c          1 70Q       0.622800
      4 O1           0.9610     1.4590    -7.2270 o          1 70Q      -0.636300
      5 O2          -0.9700     0.5500    -8.5290 o          1 70Q      -0.636300
      6 O3           2.2530    -0.0010     3.2790 o          1 70Q      -0.617500
      7 C11         -2.1060     0.0100     1.3720 ca         1 70Q      -0.113000
      8 C12         -0.5650     0.0050     3.7080 ca         1 70Q      -0.065000
      9 C13         -2.1670    -0.3350    -6.0340 ca         1 70Q      -0.044000
     10 C14         -2.6270    -0.9880    -4.9040 ca         1 70Q      -0.133000
     11 C15         -0.4580     3.8820    -6.7800 c3         1 70Q       0.224100
     12 C16         -2.4170     2.9580    -8.1020 c3         1 70Q       0.224100
     13 C17         -1.9390    -0.8760    -3.7120 ca         1 70Q      -0.077000
     14 C18          4.0920    -2.0720    -0.3630 ca         1 70Q      -0.102500
     15 C19          4.3430    -2.0730     2.0180 ca         1 70Q      -0.102500
     16 C20         -2.7060     0.0140     2.6140 ca         1 70Q      -0.104000
     17 C21         -1.9420     0.0100     3.7720 ca         1 70Q      -0.133000
     18 C22          4.8130    -3.3710     1.9680 ca         1 70Q      -0.133000
     19 C23          4.5570    -3.3730    -0.4130 ca         1 70Q      -0.133000
     20 C24          4.9160    -4.0230     0.7530 ca         1 70Q      -0.114000
     21 N1           1.3110     0.0000     0.0000 nd         1 70Q      -0.440300
     22 N2           2.0310     0.0000     1.0580 n          1 70Q      -0.145800
     23 C4          -0.7180     0.0050     1.2850 ca         1 70Q      -0.111900
     24 C5           0.0600     0.0040     2.4650 ca         1 70Q      -0.149600
     25 C6          -1.0140     0.4250    -5.9760 ca         1 70Q      -0.296500
     26 N3          -0.0800     0.0030    -2.4450 ns         1 70Q      -0.461100
     27 N4          -1.1300     2.7560    -7.4340 n3         1 70Q      -0.822500
     28 C7          -0.3170     0.5370    -4.7880 ca         1 70Q      -0.063000
     29 C8           3.4880    -0.0000     0.9040 c3         1 70Q       0.161300
     30 C9          -0.7830    -0.1080    -3.6480 ca         1 70Q       0.035600
     31 O4          -1.9630     0.0020    -1.2650 o          1 70Q      -0.599100
     32 C10          3.9880    -1.4210     0.8510 ca         1 70Q      -0.130300
     33 H1          -2.7100     0.0130     0.4730 ha         1 70Q       0.188000
     34 H2           0.0250     0.0020     4.6170 ha         1 70Q       0.157000
     35 H3          -2.7090    -0.4250    -6.9680 ha         1 70Q       0.151000
     36 H4          -3.5300    -1.5850    -4.9530 ha         1 70Q       0.142000
     37 H5          -1.1180     4.3160    -6.0390 h1         1 70Q       0.044867
     38 H6          -0.2060     4.6310    -7.5210 h1         1 70Q       0.044867
     39 H7           0.4470     3.5320    -6.2980 h1         1 70Q       0.044867
     40 H8          -2.5200     4.0000    -8.3800 h1         1 70Q       0.044867
     41 H9          -2.4630     2.3410    -8.9910 h1         1 70Q       0.044867
     42 H10         -3.2200     2.6830    -7.4290 h1         1 70Q       0.044867
     43 H11         -2.3000    -1.3870    -2.8280 ha         1 70Q       0.163000
     44 H12          3.8120    -1.5620    -1.2770 ha         1 70Q       0.141000
     45 H13          4.2620    -1.5620     2.9700 ha         1 70Q       0.141000
     46 H14         -3.7870     0.0180     2.6850 ha         1 70Q       0.138000
     47 H15         -2.4340     0.0130     4.7380 ha         1 70Q       0.137000
     48 H16          5.0930    -3.8810     2.8820 ha         1 70Q       0.133500
     49 H17          4.6380    -3.8830    -1.3650 ha         1 70Q       0.133500
     50 H18          5.2830    -5.0420     0.7140 ha         1 70Q       0.131000
     51 H19          0.9160     0.0980    -2.4540 hn         1 70Q       0.344500
     52 H20          0.5850     1.1350    -4.7430 ha         1 70Q       0.149000
     53 H21          3.9390     0.5100     1.7460 h1         1 70Q       0.082200
     54 H22          3.7540     0.5110    -0.0130 h1         1 70Q       0.082200
     55 S1          -0.4320     1.2540    -7.4170 sy         1 70Q       1.426200
@<TRIPOS>BOND
     1    19    20 ar  
     2    19    14 ar  
     3    20    18 ar  
     4    14    32 ar  
     5    18    15 ar  
     6    32    15 ar  
     7    32    29 1   
     8     6     2 2   
     9    29    22 1   
    10     2    22 1   
    11     2    24 1   
    12    22    21 1   
    13     8    24 ar  
    14     8    17 ar  
    15    24    23 ar  
    16    17    16 ar  
    17    21     1 2   
    18    23     1 1   
    19    23     7 ar  
    20     1     3 1   
    21    16     7 ar  
    22     3    26 1   
    23     3    31 2   
    24    26    30 1   
    25     4    55 2   
    26    11    27 1   
    27    28    30 ar  
    28    28    25 ar  
    29    30    13 ar  
    30    55    27 1   
    31    55    25 1   
    32    55     5 2   
    33    27    12 1   
    34    25     9 ar  
    35    13    10 ar  
    36     9    10 ar  
    37     7    33 1   
    38     8    34 1   
    39     9    35 1   
    40    10    36 1   
    41    11    37 1   
    42    11    38 1   
    43    11    39 1   
    44    12    40 1   
    45    12    41 1   
    46    12    42 1   
    47    13    43 1   
    48    14    44 1   
    49    15    45 1   
    50    16    46 1   
    51    17    47 1   
    52    18    48 1   
    53    19    49 1   
    54    20    50 1   
    55    26    51 1   
    56    28    52 1   
    57    29    53 1   
    58    29    54 1   
@<TRIPOS>SUBSTRUCTURE
     1 70Q         1 TEMP              0 ****  ****    0 ROOT
