@<TRIPOS>MOLECULE
70S
   17    18     1     0     0
SMALL
bcc


@<TRIPOS>ATOM
      1 N16          0.0000     0.0000     0.0000 nv         1 70S      -0.536200
      2 C2           1.3990     0.0000     0.0000 ca         1 70S       0.001600
      3 C3           2.0640     0.0000     1.1890 ca         1 70S      -0.072000
      4 C4           3.4760    -0.0060     1.1960 ca         1 70S      -0.176000
      5 C14          4.4450    -0.0090     2.1820 cc         1 70S      -0.287100
      6 N13          5.6440    -0.0150     1.5810 na         1 70S       0.547800
      7 N12          5.4820    -0.0170     0.1910 nc         1 70S      -0.442400
      8 C5           4.1910    -0.0120    -0.0900 ca         1 70S      -0.012000
      9 C6           3.4380    -0.0110    -1.2840 ca         1 70S      -0.072000
     10 C1           2.0830    -0.0060    -1.2240 ca         1 70S      -0.092000
     11 H1          -0.5000    -0.7660     0.4050 hn         1 70S       0.268300
     12 H2          -0.5000     0.7850    -0.3680 hn         1 70S       0.268300
     13 H3           1.5190     0.1370     2.1150 ha         1 70S       0.105000
     14 H4           4.2670    -0.0050     3.2510 h4         1 70S       0.147000
     15 H5           6.5240    -0.0180     2.0570 hn         1 70S       0.137700
     16 H6           3.9400    -0.0150    -2.2440 ha         1 70S       0.110000
     17 H7           1.5150    -0.0070    -2.1460 ha         1 70S       0.104000
@<TRIPOS>BOND
     1     1     2 1   
     2     1    11 1   
     3     1    12 1   
     4     2     3 ar  
     5     2    10 ar  
     6     3     4 ar  
     7     3    13 1   
     8     4     5 2   
     9     4     8 ar  
    10     5     6 1   
    11     5    14 1   
    12     6     7 1   
    13     6    15 1   
    14     7     8 2   
    15     8     9 ar  
    16     9    10 ar  
    17     9    16 1   
    18    10    17 1   
@<TRIPOS>SUBSTRUCTURE
     1 70S         1 TEMP              0 ****  ****    0 ROOT
