@<TRIPOS>MOLECULE
molecule
   21    22     1     0     0
SMALL
bcc


@<TRIPOS>ATOM
      1 C6           0.0000     0.0000     0.0000 cc         1 70T      -0.183200
      2 C5           1.4650     0.0000     0.0000 ca         1 70T      -0.114800
      3 C4           1.8540     0.0000     1.3520 ca         1 70T      -0.011200
      4 C2          -0.3920     0.0070     1.2840 cd         1 70T      -0.049300
      5 C7           3.2070    -0.0050     1.6720 ca         1 70T      -0.146000
      6 C8           4.1480    -0.0040     0.6650 ca         1 70T      -0.065000
      7 C9           3.7600     0.0020    -0.6670 ca         1 70T      -0.184200
      8 C10          2.4350    -0.0010    -1.0040 ca         1 70T      -0.013000
      9 C1          -1.8250     0.0140     1.7510 c3         1 70T      -0.034900
     10 N3           0.7010     0.0010     2.1060 na         1 70T      -0.173400
     11 N11          4.7870     0.0030    -1.7320 no         1 70T       0.299200
     12 O12          5.9690    -0.0010    -1.4370 o          1 70T      -0.213000
     13 O13          4.4520     0.0090    -2.9030 o          1 70T      -0.213000
     14 H1          -0.6370    -0.1710    -0.8590 ha         1 70T       0.164000
     15 H2           3.5210    -0.0090     2.7090 ha         1 70T       0.141000
     16 H3           5.2020    -0.0020     0.9160 ha         1 70T       0.165000
     17 H4           2.1380     0.0040    -2.0460 ha         1 70T       0.166000
     18 H5          -2.1690    -1.0060     1.8760 hc         1 70T       0.054367
     19 H6          -2.4420     0.5150     1.0150 hc         1 70T       0.054367
     20 H7          -1.8950     0.5370     2.6970 hc         1 70T       0.054367
     21 H8           0.6690     0.0040     3.1060 hn         1 70T       0.301700
@<TRIPOS>BOND
     1     5     6 ar
     2     5     3 ar
     3     6     7 ar
     4     3    10 1
     5     3     2 ar
     6    10     4 1
     7     7    11 1
     8     7     8 ar
     9    13    11 1
    10    11    12 1
    11     2     8 ar
    12     2     1 1
    13     4     9 1
    14     4     1 2
    15     1    14 1
    16     5    15 1
    17     6    16 1
    18     8    17 1
    19     9    18 1
    20     9    19 1
    21     9    20 1
    22    10    21 1
@<TRIPOS>SUBSTRUCTURE
     1 70T         1 TEMP              0 ****  ****    0 ROOT
