@<TRIPOS>MOLECULE
molecule
   19    19     1     0     0
SMALL
bcc


@<TRIPOS>ATOM
      1 C1           0.0000     0.0000     0.0000 c3         1 70V      -0.073100
      2 C2           1.5290     0.0000     0.0000 c3         1 70V      -0.271700
      3 C3           2.0450     0.0000     1.4250 c          1 70V       0.572100
      4 C4           1.9220     1.2760     2.2270 c3         1 70V      -0.184400
      5 C5           2.5860     2.4180     1.4540 c3         1 70V      -0.069400
      6 C6           1.9220     2.5650     0.0830 c3         1 70V      -0.184400
      7 C7           2.0450     1.2590    -0.6680 c          1 70V       0.572100
      8 O8           2.5400    -0.9910     1.9070 o          1 70V      -0.505100
      9 O9           2.5400     1.2200    -1.7700 o          1 70V      -0.505100
     10 H1          -0.3610    -0.8930     0.4950 hc         1 70V       0.047367
     11 H2          -0.3610     0.8750     0.5260 hc         1 70V       0.047367
     12 H3          -0.3610     0.0180    -1.0210 hc         1 70V       0.047367
     13 H4           1.9020    -0.8720    -0.5240 hc         1 70V       0.103700
     14 H5           0.8740     1.5050     2.3820 hc         1 70V       0.071950
     15 H6           2.4160     1.1510     3.1830 hc         1 70V       0.071950
     16 H7           2.4720     3.3410     2.0090 hc         1 70V       0.057700
     17 H8           3.6380     2.1980     1.3220 hc         1 70V       0.057700
     18 H9           0.8740     2.8100     0.2130 hc         1 70V       0.071950
     19 H10          2.4160     3.3510    -0.4750 hc         1 70V       0.071950
@<TRIPOS>BOND
     1     1     2 1   
     2     2     7 1   
     3     2     3 1   
     4     9     7 2   
     5     7     6 1   
     6     8     3 2   
     7     3     4 1   
     8     6     5 1   
     9     5     4 1   
    10     1    10 1   
    11     1    11 1   
    12     1    12 1   
    13     2    13 1   
    14     4    14 1   
    15     4    15 1   
    16     5    16 1   
    17     5    17 1   
    18     6    18 1   
    19     6    19 1   
@<TRIPOS>SUBSTRUCTURE
     1 70V         1 TEMP              0 ****  ****    0 ROOT
