@<TRIPOS>MOLECULE
molecule
   57    59     1     0     0
SMALL
bcc


@<TRIPOS>ATOM
      1 C27          0.0000     0.0000     0.0000 ca         1 70X      -0.119000
      2 C28          1.3830     0.0000     0.0000 ca         1 70X      -0.131000
      3 C29          2.0740     0.0000     1.1970 ca         1 70X      -0.111500
      4 C26         -0.6910     0.0080     1.1970 ca         1 70X      -0.131000
      5 C25         -0.0000     0.0090     2.3950 ca         1 70X      -0.111500
      6 C24          1.3820     0.0010     2.3950 ca         1 70X      -0.120300
      7 C23          2.1360     0.0010     3.6990 c3         1 70X       0.157300
      8 C14          4.0980     4.9560     7.0910 ca         1 70X      -0.124300
      9 C15          3.8990     3.6330     6.7500 ca         1 70X      -0.084000
     10 C16          3.2200     3.3130     5.5730 ca         1 70X      -0.129600
     11 C17          2.7460     4.3360     4.7490 ca         1 70X      -0.102000
     12 C18          2.9510     5.6530     5.1010 ca         1 70X      -0.134000
     13 C19          3.6240     5.9630     6.2690 ca         1 70X      -0.091000
     14 C20          3.0440     1.6290     5.2700 c          1 70X       0.666700
     15 N1           8.4560     4.2620     7.7050 nu         1 70X      -0.904200
     16 C2           9.1850     5.5230     7.9320 c3         1 70X       0.247200
     17 C3           8.3630     6.6630     7.3210 c3         1 70X      -0.163400
     18 C4           6.9150     6.5160     7.6930 c          1 70X       0.701500
     19 N5           6.3780     5.3430     8.0600 n          1 70X      -0.455300
     20 C6           7.1540     4.2070     8.1730 c2         1 70X       0.708800
     21 N7           6.6850     3.1210     8.7160 n2         1 70X      -0.900100
     22 C10          9.3560     5.7570     9.4340 c3         1 70X      -0.088700
     23 C11         10.5570     5.4560     7.2600 c3         1 70X      -0.097100
     24 C12         10.1720     4.6120    10.0390 c3         1 70X      -0.091100
     25 C13         10.0870     7.0810     9.6650 c3         1 70X      -0.091100
     26 O21          3.4380     0.7050     5.9540 o          1 70X      -0.581100
     27 N22          2.3810     1.3820     4.1220 ns         1 70X      -0.581900
     28 H1          -0.5420    -0.0000    -0.9380 ha         1 70X       0.132000
     29 H2           1.9240    -0.0040    -0.9380 ha         1 70X       0.133000
     30 H3           3.1570    -0.0030     1.1970 ha         1 70X       0.135500
     31 H4          -1.7750     0.0110     1.1970 ha         1 70X       0.133000
     32 H5          -0.5420     0.0130     3.3330 ha         1 70X       0.135500
     33 H6           1.5510    -0.5090     4.4550 h1         1 70X       0.060200
     34 H7           3.0830    -0.5100     3.5700 h1         1 70X       0.060200
     35 H8           4.2700     2.8440     7.3930 ha         1 70X       0.156000
     36 H9           2.2180     4.0950     3.8340 ha         1 70X       0.126000
     37 H10          2.5830     6.4480     4.4630 ha         1 70X       0.138000
     38 H11          3.7830     7.0000     6.5420 ha         1 70X       0.152000
     39 H12          8.7160     7.5850     7.7680 hc         1 70X       0.090200
     40 H13          8.4280     6.5630     6.2450 hc         1 70X       0.090200
     41 H14          5.7430     3.0970     9.0540 hn         1 70X       0.406400
     42 H16          4.4580     6.2470     8.7440 h1         1 70X       0.075200
     43 H17          4.6560     4.5260     9.0990 h1         1 70X       0.075200
     44 H18          8.3820     5.7950     9.9070 hc         1 70X       0.061700
     45 H19         11.2170     4.8280     7.8460 hc         1 70X       0.048700
     46 H20         10.9750     6.4530     7.1920 hc         1 70X       0.048700
     47 H21         10.4530     5.0400     6.2650 hc         1 70X       0.048700
     48 H22          9.9500     3.6930     9.5100 hc         1 70X       0.039700
     49 H23         11.2280     4.8350     9.9500 hc         1 70X       0.039700
     50 H24          9.9140     4.4980    11.0850 hc         1 70X       0.039700
     51 H25         10.5000     7.0950    10.6660 hc         1 70X       0.039700
     52 H26          9.3900     7.9030     9.5500 hc         1 70X       0.039700
     53 H27         10.8870     7.1820     8.9420 hc         1 70X       0.039700
     54 H28          2.0800     2.1430     3.5450 hn         1 70X       0.320500
     55 H29          8.8800     3.4860     7.2360 hn         1 70X       0.469800
     56 C9           4.8260     5.3020     8.3630 c3         1 70X       0.174300
     57 O8           6.2040     7.4980     7.6640 o          1 70X      -0.646500
@<TRIPOS>BOND
     1    57    18 2   
     2    18    19 1   
     3    18    17 1   
     4    56    19 1   
     5    56     8 1   
     6    13     8 ar  
     7    13    12 ar  
     8    19    20 1   
     9    17    16 1   
    10    21    20 2   
    11     8     9 ar  
    12    12    11 ar  
    13    20    15 1   
    14    15    16 1   
    15    23    16 1   
    16    16    22 1   
    17     9    10 ar  
    18    11    10 ar  
    19    10    14 1   
    20    22    25 1   
    21    22    24 1   
    22    14    26 2   
    23    14    27 1   
    24    27     7 1   
    25     7     6 1   
    26     6     3 ar  
    27     6     5 ar  
    28     3     2 ar  
    29     2     1 ar  
    30     5     4 ar  
    31     4     1 ar  
    32     1    28 1   
    33     2    29 1   
    34     3    30 1   
    35     4    31 1   
    36     5    32 1   
    37     7    33 1   
    38     7    34 1   
    39     9    35 1   
    40    11    36 1   
    41    12    37 1   
    42    13    38 1   
    43    17    39 1   
    44    17    40 1   
    45    21    41 1   
    46    56    42 1   
    47    56    43 1   
    48    22    44 1   
    49    23    45 1   
    50    23    46 1   
    51    23    47 1   
    52    24    48 1   
    53    24    49 1   
    54    24    50 1   
    55    25    51 1   
    56    25    52 1   
    57    25    53 1   
    58    27    54 1   
    59    15    55 1   
@<TRIPOS>SUBSTRUCTURE
     1 70X         1 TEMP              0 ****  ****    0 ROOT
