@<TRIPOS>MOLECULE
70X
   57    59     1     0     0
SMALL
bcc


@<TRIPOS>ATOM
      1 C27          0.0000     0.0000     0.0000 ca         1 70X      -0.092000
      2 C28          1.3830     0.0000     0.0000 ca         1 70X      -0.102000
      3 C29          2.0740     0.0000     1.1970 ca         1 70X      -0.083500
      4 C26         -0.6910     0.0080     1.1970 ca         1 70X      -0.102000
      5 C25         -0.0000     0.0090     2.3950 ca         1 70X      -0.083500
      6 C24          1.3820     0.0010     2.3950 ca         1 70X      -0.128300
      7 C23          2.1360     0.0010     3.6990 c3         1 70X       0.111300
      8 C14          4.0980     4.9560     7.0910 ca         1 70X      -0.130300
      9 C15          3.8990     3.6330     6.7500 ca         1 70X      -0.054000
     10 C16          3.2200     3.3130     5.5730 ca         1 70X      -0.147600
     11 C17          2.7460     4.3360     4.7490 ca         1 70X      -0.082000
     12 C18          2.9510     5.6530     5.1010 ca         1 70X      -0.111000
     13 C19          3.6240     5.9630     6.2690 ca         1 70X      -0.070000
     14 C20          3.0440     1.6290     5.2700 c          1 70X       0.602700
     15 N1           8.4560     4.2620     7.7050 nu         1 70X      -0.582200
     16 C2           9.1850     5.5230     7.9320 c3         1 70X       0.132200
     17 C3           8.3630     6.6630     7.3210 c3         1 70X      -0.120400
     18 C4           6.9150     6.5160     7.6930 c          1 70X       0.620500
     19 N5           6.3780     5.3430     8.0600 n          1 70X      -0.033300
     20 C6           7.1540     4.2070     8.1730 c2         1 70X       0.419800
     21 N7           6.6850     3.1210     8.7160 n2         1 70X      -0.774100
     22 C10          9.3560     5.7570     9.4340 c3         1 70X      -0.069700
     23 C11         10.5570     5.4560     7.2600 c3         1 70X      -0.015100
     24 C12         10.1720     4.6120    10.0390 c3         1 70X      -0.004100
     25 C13         10.0870     7.0810     9.6650 c3         1 70X      -0.004100
     26 O21          3.4380     0.7050     5.9540 o          1 70X      -0.626100
     27 N22          2.3810     1.3820     4.1220 ns         1 70X      -0.209900
     28 H1          -0.5420    -0.0000    -0.9380 ha         1 70X       0.104000
     29 H2           1.9240    -0.0040    -0.9380 ha         1 70X       0.105000
     30 H3           3.1570    -0.0030     1.1970 ha         1 70X       0.108500
     31 H4          -1.7750     0.0110     1.1970 ha         1 70X       0.105000
     32 H5          -0.5420     0.0130     3.3330 ha         1 70X       0.108500
     33 H6           3.0830    -0.5100     3.5700 h1         1 70X       0.029200
     34 H7           1.5510    -0.5090     4.4550 h1         1 70X       0.029200
     35 H8           4.2700     2.8440     7.3930 ha         1 70X       0.142000
     36 H9           2.2180     4.0950     3.8340 ha         1 70X       0.098000
     37 H10          2.5830     6.4480     4.4630 ha         1 70X       0.106000
     38 H11          3.7830     7.0000     6.5420 ha         1 70X       0.124000
     39 H12          8.4280     6.5630     6.2450 hc         1 70X       0.061200
     40 H13          8.7160     7.5850     7.7680 hc         1 70X       0.061200
     41 H14          7.2660     2.3110     8.7970 hn         1 70X       0.336400
     42 H16          4.6560     4.5260     9.0990 h1         1 70X       0.047700
     43 H17          4.4580     6.2470     8.7440 h1         1 70X       0.047700
     44 H18          8.3820     5.7950     9.9070 hc         1 70X       0.039700
     45 H19         10.9670     6.4550     7.1760 hc         1 70X       0.019367
     46 H20         10.4550     5.0240     6.2720 hc         1 70X       0.019367
     47 H21         11.2220     4.8420     7.8560 hc         1 70X       0.019367
     48 H22          9.9250     4.5080    11.0890 hc         1 70X       0.010367
     49 H23         11.2280     4.8280     9.9360 hc         1 70X       0.010367
     50 H24          9.9390     3.6900     9.5210 hc         1 70X       0.010367
     51 H25         10.8890     7.1810     8.9440 hc         1 70X       0.010367
     52 H26         10.4980     7.0960    10.6670 hc         1 70X       0.010367
     53 H27          9.3910     7.9030     9.5480 hc         1 70X       0.010367
     54 H28          2.0620     2.1430     3.5550 hn         1 70X       0.186500
     55 H29          8.8800     3.4860     7.2360 hn         1 70X       0.319800
     56 C9           4.8260     5.3020     8.3630 c3         1 70X       0.138300
     57 O8           6.2040     7.4980     7.6640 o          1 70X      -0.677500
@<TRIPOS>BOND
     1     1     2 ar  
     2     1     4 ar  
     3     1    28 1   
     4     2     3 ar  
     5     2    29 1   
     6     3     6 ar  
     7     3    30 1   
     8     4     5 ar  
     9     4    31 1   
    10     5     6 ar  
    11     5    32 1   
    12     6     7 1   
    13     7    27 1   
    14     7    33 1   
    15     7    34 1   
    16     8     9 ar  
    17     8    13 ar  
    18     8    56 1   
    19     9    10 ar  
    20     9    35 1   
    21    10    11 ar  
    22    10    14 1   
    23    11    12 ar  
    24    11    36 1   
    25    12    13 ar  
    26    12    37 1   
    27    13    38 1   
    28    14    26 2   
    29    14    27 1   
    30    15    16 1   
    31    15    20 1   
    32    15    55 1   
    33    16    17 1   
    34    16    22 1   
    35    16    23 1   
    36    17    18 1   
    37    17    39 1   
    38    17    40 1   
    39    18    19 1   
    40    18    57 2   
    41    19    20 1   
    42    19    56 1   
    43    20    21 2   
    44    21    41 1   
    45    22    24 1   
    46    22    25 1   
    47    22    44 1   
    48    23    45 1   
    49    23    46 1   
    50    23    47 1   
    51    24    48 1   
    52    24    49 1   
    53    24    50 1   
    54    25    51 1   
    55    25    52 1   
    56    25    53 1   
    57    27    54 1   
    58    42    56 1   
    59    43    56 1   
@<TRIPOS>SUBSTRUCTURE
     1 70X         1 TEMP              0 ****  ****    0 ROOT
