@<TRIPOS>MOLECULE
molecule
   61    64     1     0     0
SMALL
bcc


@<TRIPOS>ATOM
      1 C25          0.0000     0.0000     0.0000 ca         1 70Y      -0.121500
      2 C26          1.3830     0.0000     0.0000 ca         1 70Y      -0.123500
      3 C27          2.0730     0.0000     1.1970 ca         1 70Y      -0.124000
      4 C28          1.3820     0.0010     2.3940 ca         1 70Y      -0.123500
      5 C29         -0.0000     0.0030     2.3940 ca         1 70Y      -0.121500
      6 C24         -0.6910     0.0010     1.1970 ca         1 70Y      -0.085300
      7 C23         -2.7460     1.2590     1.9200 c3         1 70Y       0.095000
      8 C22         -2.1980     0.0080     1.1960 c3         1 70Y      -0.039400
      9 C20         -3.9800    -0.5320     2.7320 c          1 70Y       0.702500
     10 C4          -7.8270     5.9210     1.8790 c          1 70Y       0.707500
     11 C2          -7.7520     6.5730    -0.5210 c3         1 70Y       0.251200
     12 C3          -8.6520     6.1630     0.6470 c3         1 70Y      -0.164400
     13 C11         -8.5230     6.4500    -1.8370 c3         1 70Y      -0.098100
     14 C17         -6.9590     1.9930     4.3740 ca         1 70Y      -0.109000
     15 C16         -5.9840     1.1480     3.8830 ca         1 70Y      -0.154000
     16 C15         -4.9400     1.6610     3.1240 ca         1 70Y       0.073600
     17 C14         -4.8810     3.0230     2.8600 ca         1 70Y      -0.164000
     18 N1          -6.5870     5.6690    -0.5400 nu         1 70Y      -0.902200
     19 N5          -6.5190     5.6320     1.8280 n          1 70Y      -0.430300
     20 C6          -5.8390     5.6010     0.6230 c2         1 70Y       0.710800
     21 N7          -4.5400     5.5110     0.5850 n2         1 70Y      -0.911100
     22 C10         -7.2820     8.0160    -0.3300 c3         1 70Y      -0.087700
     23 C13         -5.8600     3.8640     3.3550 ca         1 70Y      -0.099300
     24 C18         -6.9010     3.3490     4.1050 ca         1 70Y      -0.129000
     25 N19         -3.9500     0.8070     2.6260 n          1 70Y      -0.380000
     26 C21         -2.7580    -1.1350     2.0760 c3         1 70Y      -0.164400
     27 O30         -4.8590    -1.1670     3.2770 o          1 70Y      -0.620500
     28 H1          -0.5420    -0.0010    -0.9380 ha         1 70Y       0.132500
     29 H2           1.9250    -0.0010    -0.9380 ha         1 70Y       0.133000
     30 H3           3.1560    -0.0010     1.1980 ha         1 70Y       0.132000
     31 H4           1.9230     0.0020     3.3320 ha         1 70Y       0.133000
     32 H5          -9.0550     8.7430     0.6460 hc         1 70Y       0.039867
     33 H6          -8.1660     9.9740    -0.2620 hc         1 70Y       0.039867
     34 H7          -9.1340     8.7690    -1.1210 hc         1 70Y       0.039867
     35 H8          -0.5420     0.0040     3.3320 ha         1 70Y       0.132500
     36 H9          -3.0020     2.0260     1.1980 h1         1 70Y       0.062200
     37 H10         -2.0150     1.6310     2.6280 h1         1 70Y       0.062200
     38 H11         -2.5910    -0.0550     0.1880 hc         1 70Y       0.075700
     39 H12         -9.1820     5.2540     0.3880 hc         1 70Y       0.086700
     40 H13         -9.3650     6.9550     0.8440 hc         1 70Y       0.086700
     41 H14         -9.4460     7.0120    -1.7680 hc         1 70Y       0.049367
     42 H15         -7.9200     6.8440    -2.6470 hc         1 70Y       0.049367
     43 H16         -8.7480     5.4080    -2.0280 hc         1 70Y       0.049367
     44 H17         -7.7750     1.5930     4.9640 ha         1 70Y       0.137000
     45 H18         -6.0310     0.0860     4.0920 ha         1 70Y       0.184000
     46 H19         -4.0690     3.4270     2.2680 ha         1 70Y       0.133000
     47 H20         -5.7890     7.5800    -1.8120 hc         1 70Y       0.039867
     48 H21         -7.0170     8.7410    -2.3350 hc         1 70Y       0.039867
     49 H22         -5.7500     9.2420    -1.2060 hc         1 70Y       0.039867
     50 H23         -6.3490     5.1330    -1.3510 hn         1 70Y       0.469800
     51 H24         -4.0160     5.4630     1.4360 hn         1 70Y       0.407400
     52 H25         -6.2520     5.8870     3.8880 h1         1 70Y       0.073200
     53 H26         -4.7620     5.6450     2.9650 h1         1 70Y       0.073200
     54 H27         -6.7180     8.0940     0.5910 hc         1 70Y       0.061700
     55 H28         -7.6670     4.0100     4.4920 ha         1 70Y       0.150000
     56 H29         -2.0310    -1.4250     2.8250 hc         1 70Y       0.084700
     57 H30         -3.0380    -1.9820     1.4610 hc         1 70Y       0.084700
     58 C9          -5.7970     5.3420     3.0700 c3         1 70Y       0.148300
     59 O8          -8.3650     5.9960     2.9640 o          1 70Y      -0.635500
     60 C12         -6.3950     8.4250    -1.5070 c3         1 70Y      -0.090600
     61 C31         -8.4980     8.9430    -0.2620 c3         1 70Y      -0.090600
@<TRIPOS>BOND
     1    59    10 2   
     2    10    19 1   
     3    10    12 1   
     4    58    19 1   
     5    58    23 1   
     6    19    20 1   
     7    12    11 1   
     8    21    20 2   
     9    24    23 ar  
    10    24    14 ar  
    11    20    18 1   
    12    23    17 ar  
    13    14    15 ar  
    14    13    11 1   
    15    18    11 1   
    16    11    22 1   
    17    17    16 ar  
    18    15    16 ar  
    19    16    25 1   
    20    22    61 1   
    21    22    60 1   
    22    25     9 1   
    23    25     7 1   
    24    27     9 2   
    25     2     1 ar  
    26     2     3 ar  
    27     1     6 ar  
    28     9    26 1   
    29     7     8 1   
    30     3     4 ar  
    31     6     8 1   
    32     6     5 ar  
    33     8    26 1   
    34     4     5 ar  
    35     1    28 1   
    36     2    29 1   
    37     3    30 1   
    38     4    31 1   
    39    61    32 1   
    40    61    33 1   
    41    61    34 1   
    42     5    35 1   
    43     7    36 1   
    44     7    37 1   
    45     8    38 1   
    46    12    39 1   
    47    12    40 1   
    48    13    41 1   
    49    13    42 1   
    50    13    43 1   
    51    14    44 1   
    52    15    45 1   
    53    17    46 1   
    54    60    47 1   
    55    60    48 1   
    56    60    49 1   
    57    18    50 1   
    58    21    51 1   
    59    58    52 1   
    60    58    53 1   
    61    22    54 1   
    62    24    55 1   
    63    26    56 1   
    64    26    57 1   
@<TRIPOS>SUBSTRUCTURE
     1 70Y         1 TEMP              0 ****  ****    0 ROOT
