@<TRIPOS>MOLECULE
70Y
   61    64     1     0     0
SMALL
bcc


@<TRIPOS>ATOM
      1 C25          0.0000     0.0000     0.0000 ca         1 70Y      -0.096000
      2 C26          1.3830     0.0000     0.0000 ca         1 70Y      -0.094500
      3 C27          2.0730     0.0000     1.1970 ca         1 70Y      -0.098000
      4 C28          1.3820     0.0010     2.3940 ca         1 70Y      -0.094500
      5 C29         -0.0000     0.0030     2.3940 ca         1 70Y      -0.096000
      6 C24         -0.6910     0.0010     1.1970 ca         1 70Y      -0.090300
      7 C23         -2.7460     1.2590     1.9200 c3         1 70Y       0.022000
      8 C22         -2.1980     0.0080     1.1960 c3         1 70Y       0.004600
      9 C20         -3.9800    -0.5320     2.7320 c          1 70Y       0.618500
     10 C4          -7.8270     5.9210     1.8790 c          1 70Y       0.617500
     11 C2          -7.7520     6.5730    -0.5210 c3         1 70Y       0.138200
     12 C3          -8.6520     6.1630     0.6470 c3         1 70Y      -0.119400
     13 C11         -8.5230     6.4500    -1.8370 c3         1 70Y      -0.016100
     14 C17         -6.9590     1.9930     4.3740 ca         1 70Y      -0.078000
     15 C16         -5.9840     1.1480     3.8830 ca         1 70Y      -0.145000
     16 C15         -4.9400     1.6610     3.1240 ca         1 70Y      -0.070400
     17 C14         -4.8810     3.0230     2.8600 ca         1 70Y      -0.140000
     18 N1          -6.5870     5.6690    -0.5400 nu         1 70Y      -0.578200
     19 N5          -6.5190     5.6320     1.8280 n          1 70Y       0.016700
     20 C6          -5.8390     5.6010     0.6230 c2         1 70Y       0.416800
     21 N7          -4.5400     5.5110     0.5850 n2         1 70Y      -0.788100
     22 C10         -7.2820     8.0160    -0.3300 c3         1 70Y      -0.069700
     23 C13         -5.8600     3.8640     3.3550 ca         1 70Y      -0.099300
     24 C18         -6.9010     3.3490     4.1050 ca         1 70Y      -0.109000
     25 N19         -3.9500     0.8070     2.6260 n          1 70Y       0.013000
     26 C21         -2.7580    -1.1350     2.0760 c3         1 70Y      -0.120400
     27 O30         -4.8590    -1.1670     3.2770 o          1 70Y      -0.660500
     28 H1          -0.5420    -0.0010    -0.9380 ha         1 70Y       0.108000
     29 H2           1.9250    -0.0010    -0.9380 ha         1 70Y       0.104500
     30 H3           3.1560    -0.0010     1.1980 ha         1 70Y       0.104000
     31 H4           1.9230     0.0020     3.3320 ha         1 70Y       0.104500
     32 H5          -8.6380     9.2810     0.7580 hc         1 70Y       0.010533
     33 H6          -8.3370     9.7990    -0.9070 hc         1 70Y       0.010533
     34 H7          -9.3800     8.4060    -0.5890 hc         1 70Y       0.010533
     35 H8          -0.5420     0.0040     3.3320 ha         1 70Y       0.108000
     36 H9          -2.0150     1.6310     2.6280 h1         1 70Y       0.034700
     37 H10         -3.0020     2.0260     1.1980 h1         1 70Y       0.034700
     38 H11         -2.5910    -0.0550     0.1880 hc         1 70Y       0.042700
     39 H12         -9.3650     6.9550     0.8440 hc         1 70Y       0.057200
     40 H13         -9.1820     5.2540     0.3880 hc         1 70Y       0.057200
     41 H14         -9.4560     6.9960    -1.7610 hc         1 70Y       0.020033
     42 H15         -8.7300     5.4060    -2.0380 hc         1 70Y       0.020033
     43 H16         -7.9280     6.8620    -2.6440 hc         1 70Y       0.020033
     44 H17         -7.7750     1.5930     4.9640 ha         1 70Y       0.105000
     45 H18         -6.0310     0.0860     4.0920 ha         1 70Y       0.167000
     46 H19         -4.0690     3.4270     2.2680 ha         1 70Y       0.129000
     47 H20         -7.0170     8.7400    -2.3360 hc         1 70Y       0.010533
     48 H21         -5.7880     7.5810    -1.8110 hc         1 70Y       0.010533
     49 H22         -5.7510     9.2430    -1.2070 hc         1 70Y       0.010533
     50 H23         -6.3490     5.1330    -1.3510 hn         1 70Y       0.317800
     51 H24         -4.0660     5.4900    -0.2960 hn         1 70Y       0.333400
     52 H25         -4.7620     5.6450     2.9650 h1         1 70Y       0.053700
     53 H26         -6.2520     5.8870     3.8880 h1         1 70Y       0.053700
     54 H27         -6.7180     8.0940     0.5910 hc         1 70Y       0.039700
     55 H28         -7.6670     4.0100     4.4920 ha         1 70Y       0.125000
     56 H29         -3.0380    -1.9820     1.4610 hc         1 70Y       0.051700
     57 H30         -2.0310    -1.4250     2.8240 hc         1 70Y       0.051700
     58 C9          -5.7970     5.3420     3.0700 c3         1 70Y       0.086300
     59 O8          -8.3650     5.9960     2.9640 o          1 70Y      -0.667500
     60 C12         -6.3950     8.4250    -1.5070 c3         1 70Y      -0.005100
     61 C31         -8.4980     8.9430    -0.2620 c3         1 70Y      -0.005100
@<TRIPOS>BOND
     1     1     2 ar  
     2     1     6 ar  
     3     1    28 1   
     4     2     3 ar  
     5     2    29 1   
     6     3     4 ar  
     7     3    30 1   
     8     4     5 ar  
     9     4    31 1   
    10     5     6 ar  
    11     5    35 1   
    12     6     8 1   
    13     7     8 1   
    14     7    25 1   
    15     7    36 1   
    16     7    37 1   
    17     8    26 1   
    18     8    38 1   
    19     9    25 1   
    20     9    26 1   
    21     9    27 2   
    22    10    12 1   
    23    10    19 1   
    24    10    59 2   
    25    11    12 1   
    26    11    13 1   
    27    11    18 1   
    28    11    22 1   
    29    12    39 1   
    30    12    40 1   
    31    13    41 1   
    32    13    42 1   
    33    13    43 1   
    34    14    15 ar  
    35    14    24 ar  
    36    14    44 1   
    37    15    16 ar  
    38    15    45 1   
    39    16    17 ar  
    40    16    25 1   
    41    17    23 ar  
    42    17    46 1   
    43    18    20 1   
    44    18    50 1   
    45    19    20 1   
    46    19    58 1   
    47    20    21 2   
    48    21    51 1   
    49    22    54 1   
    50    22    60 1   
    51    22    61 1   
    52    23    24 ar  
    53    23    58 1   
    54    24    55 1   
    55    26    56 1   
    56    26    57 1   
    57    32    61 1   
    58    33    61 1   
    59    34    61 1   
    60    47    60 1   
    61    48    60 1   
    62    49    60 1   
    63    52    58 1   
    64    53    58 1   
@<TRIPOS>SUBSTRUCTURE
     1 70Y         1 TEMP              0 ****  ****    0 ROOT
