@<TRIPOS>MOLECULE
70Z
   65    68     1     0     0
SMALL
bcc


@<TRIPOS>ATOM
      1 C1           0.0000     0.0000     0.0000 c          1 70Z       0.604700
      2 C7          -1.9610    -0.6920    -1.3780 ca         1 70Z       0.207100
      3 C9          -2.1930    -0.0320    -3.6710 ca         1 70Z      -0.002000
      4 C10         -0.9180     0.6960    -3.5720 ca         1 70Z      -0.155000
      5 C11         -0.7330     1.2500    -4.8460 cc         1 70Z      -0.407300
      6 C14          0.3930     2.0770    -5.2910 c          1 70Z       0.638300
      7 C16          2.0470    -0.1150     1.2090 ca         1 70Z      -0.095400
      8 C19          4.1150    -0.0600     2.4220 ca         1 70Z      -0.119500
      9 C20          2.0540    -0.5190     3.5720 ca         1 70Z      -0.119500
     10 C21          3.4270     0.0530     1.2310 ca         1 70Z      -0.135000
     11 N23          4.1280    -0.4450     4.8050 nh         1 70Z      -0.357000
     12 C30          2.6800     2.3150    -6.0990 c3         1 70Z       0.049000
     13 C31          2.6190     2.2980    -7.6280 c3         1 70Z      -0.051400
     14 C32          3.7630     3.1420    -8.1930 c3         1 70Z      -0.022400
     15 C33          1.7850     0.0770    -5.3040 c3         1 70Z       0.074300
     16 C34          3.7010     3.1240    -9.7220 c3         1 70Z       0.006900
     17 N2           1.3480     0.0000     0.0000 n          1 70Z       0.029000
     18 O3          -0.6090     0.0000     1.0530 o          1 70Z      -0.614100
     19 C4          -0.7370     0.0050    -1.2780 ca         1 70Z      -0.180600
     20 C5          -0.2170     0.6930    -2.3620 ca         1 70Z      -0.024000
     21 C6          -2.6750    -0.7140    -2.5350 ca         1 70Z      -0.187000
     22 N12         -1.8060     0.8680    -5.5880 na         1 70Z       0.710800
     23 N13         -2.6200     0.1440    -4.9090 nc         1 70Z      -0.446400
     24 O15          0.2530     3.2790    -5.4190 o          1 70Z      -0.628100
     25 C17          1.3640    -0.4020     2.3820 ca         1 70Z      -0.135000
     26 C18          3.4310    -0.3410     3.5960 ca         1 70Z      -0.003400
     27 N24          1.5850     1.5060    -5.5570 n          1 70Z      -0.148800
     28 C25          5.5670    -0.2220     4.6030 c3         1 70Z       0.094300
     29 C26          6.2820    -0.2860     5.9560 c3         1 70Z       0.212900
     30 O27          6.0110    -1.5480     6.5740 os         1 70Z      -0.412600
     31 C28          4.6190    -1.7980     6.7860 c3         1 70Z       0.212900
     32 C29          3.8870    -1.7490     5.4420 c3         1 70Z       0.094300
     33 H1           5.1900     0.0750     2.4400 ha         1 70Z       0.117000
     34 H2           1.5200    -0.7410     4.4880 ha         1 70Z       0.117000
     35 H3           3.9610     0.2730     0.3150 ha         1 70Z       0.151500
     36 H4           3.0760    -0.2900    -1.1430 h1         1 70Z       0.025700
     37 H5           2.1530     1.1650    -1.5400 h1         1 70Z       0.025700
     38 H6           1.5570    -0.4240    -2.0380 h1         1 70Z       0.025700
     39 H7           3.6280     1.9060    -5.7710 h1         1 70Z       0.036200
     40 H8           2.5850     3.3350    -5.7460 h1         1 70Z       0.036200
     41 H9           2.7140     1.2780    -7.9810 hc         1 70Z       0.020200
     42 H10          1.6710     2.7070    -7.9560 hc         1 70Z       0.020200
     43 H11          4.7100     2.7330    -7.8650 hc         1 70Z       0.014700
     44 H12          3.6680     4.1620    -7.8400 hc         1 70Z       0.014700
     45 H13          1.5730    -0.1380    -4.2640 h1         1 70Z       0.013367
     46 H14          2.8110    -0.1890    -5.5270 h1         1 70Z       0.013367
     47 H15          1.1180    -0.4970    -5.9350 h1         1 70Z       0.013367
     48 H16          3.7880     2.1040   -10.0750 hc         1 70Z       0.002033
     49 H17          4.5160     3.7150   -10.1230 hc         1 70Z       0.002033
     50 H18          2.7570     3.5420   -10.0500 hc         1 70Z       0.002033
     51 H19          0.6340     1.3500    -2.2280 ha         1 70Z       0.129000
     52 H20         -3.6120    -1.2570    -2.5850 ha         1 70Z       0.124000
     53 H21         -3.3730    -1.4230    -0.3500 ho         1 70Z       0.404000
     54 H22         -1.9450     1.1210    -6.5460 hn         1 70Z       0.131700
     55 H23          0.2890    -0.5360     2.3640 ha         1 70Z       0.151500
     56 H24          5.9630    -0.9900     3.9490 h1         1 70Z       0.025950
     57 H25          5.7220     0.7540     4.1600 h1         1 70Z       0.025950
     58 H26          5.9210     0.5120     6.5920 h1         1 70Z       0.013450
     59 H27          7.3500    -0.1810     5.8040 h1         1 70Z       0.013450
     60 H28          4.4930    -2.7780     7.2300 h1         1 70Z       0.013450
     61 H29          4.2130    -1.0410     7.4460 h1         1 70Z       0.013450
     62 H30          4.2590    -2.5380     4.8000 h1         1 70Z       0.025950
     63 H31          2.8240    -1.8790     5.6060 h1         1 70Z       0.025950
     64 O8          -2.4340    -1.3580    -0.2940 oh         1 70Z      -0.457100
     65 C22          2.0810     0.1210    -1.2620 c3         1 70Z       0.021300
@<TRIPOS>BOND
     1     1    17 1   
     2     1    18 2   
     3     1    19 1   
     4     2    19 ar  
     5     2    21 ar  
     6     2    64 1   
     7     3     4 ar  
     8     3    21 ar  
     9     3    23 2   
    10     4     5 2   
    11     4    20 ar  
    12     5     6 1   
    13     5    22 1   
    14     6    24 2   
    15     6    27 1   
    16     7    10 ar  
    17     7    17 1   
    18     7    25 ar  
    19     8    10 ar  
    20     8    26 ar  
    21     8    33 1   
    22     9    25 ar  
    23     9    26 ar  
    24     9    34 1   
    25    10    35 1   
    26    11    26 1   
    27    11    28 1   
    28    11    32 1   
    29    12    13 1   
    30    12    27 1   
    31    12    39 1   
    32    12    40 1   
    33    13    14 1   
    34    13    41 1   
    35    13    42 1   
    36    14    16 1   
    37    14    43 1   
    38    14    44 1   
    39    15    27 1   
    40    15    45 1   
    41    15    46 1   
    42    15    47 1   
    43    16    48 1   
    44    16    49 1   
    45    16    50 1   
    46    17    65 1   
    47    19    20 ar  
    48    20    51 1   
    49    21    52 1   
    50    22    23 1   
    51    22    54 1   
    52    25    55 1   
    53    28    29 1   
    54    28    56 1   
    55    28    57 1   
    56    29    30 1   
    57    29    58 1   
    58    29    59 1   
    59    30    31 1   
    60    31    32 1   
    61    31    60 1   
    62    31    61 1   
    63    32    62 1   
    64    32    63 1   
    65    36    65 1   
    66    37    65 1   
    67    38    65 1   
    68    53    64 1   
@<TRIPOS>SUBSTRUCTURE
     1 70Z         1 TEMP              0 ****  ****    0 ROOT
