@<TRIPOS>MOLECULE
molecule
   65    68     1     0     0
SMALL
bcc


@<TRIPOS>ATOM
      1 C1           0.0000     0.0000     0.0000 c          1 70Z       0.685700
      2 C7          -1.9610    -0.6920    -1.3780 ca         1 70Z       0.189100
      3 C9          -2.1930    -0.0320    -3.6710 ca         1 70Z      -0.019000
      4 C10         -0.9180     0.6960    -3.5720 ca         1 70Z      -0.163000
      5 C11         -0.7330     1.2500    -4.8460 cc         1 70Z      -0.177300
      6 C14          0.3930     2.0770    -5.2910 c          1 70Z       0.691300
      7 C16          2.0470    -0.1150     1.2090 ca         1 70Z       0.039600
      8 C19          4.1150    -0.0600     2.4220 ca         1 70Z      -0.144000
      9 C20          2.0540    -0.5190     3.5720 ca         1 70Z      -0.144000
     10 C21          3.4270     0.0530     1.2310 ca         1 70Z      -0.147500
     11 N23          4.1280    -0.4450     4.8050 nh         1 70Z      -0.593000
     12 C30          2.6800     2.3150    -6.0990 c3         1 70Z       0.107000
     13 C31          2.6190     2.2980    -7.6280 c3         1 70Z      -0.103400
     14 C32          3.7630     3.1420    -8.1930 c3         1 70Z      -0.082400
     15 C33          1.7850     0.0770    -5.3040 c3         1 70Z       0.091300
     16 C34          3.7010     3.1240    -9.7220 c3         1 70Z      -0.090100
     17 N2           1.3480     0.0000     0.0000 n          1 70Z      -0.370000
     18 O3          -0.6090     0.0000     1.0530 o          1 70Z      -0.572100
     19 C4          -0.7370     0.0050    -1.2780 ca         1 70Z      -0.162600
     20 C5          -0.2170     0.6930    -2.3620 ca         1 70Z      -0.034000
     21 C6          -2.6750    -0.7140    -2.5350 ca         1 70Z      -0.203000
     22 N12         -1.8060     0.8680    -5.5880 na         1 70Z       0.125800
     23 N13         -2.6200     0.1440    -4.9090 nc         1 70Z      -0.282400
     24 O15          0.2530     3.2790    -5.4190 o          1 70Z      -0.580100
     25 C17          1.3640    -0.4020     2.3820 ca         1 70Z      -0.147500
     26 C18          3.4310    -0.3410     3.5960 ca         1 70Z       0.077600
     27 N24          1.5850     1.5060    -5.5570 n          1 70Z      -0.486800
     28 C25          5.5670    -0.2220     4.6030 c3         1 70Z       0.124800
     29 C26          6.2820    -0.2860     5.9560 c3         1 70Z       0.136900
     30 O27          6.0110    -1.5480     6.5740 os         1 70Z      -0.425600
     31 C28          4.6190    -1.7980     6.7860 c3         1 70Z       0.136900
     32 C29          3.8870    -1.7490     5.4420 c3         1 70Z       0.124800
     33 H1           5.1900     0.0750     2.4400 ha         1 70Z       0.137500
     34 H2           1.5200    -0.7410     4.4880 ha         1 70Z       0.137500
     35 H3           3.9610     0.2730     0.3150 ha         1 70Z       0.166000
     36 H4           3.0760    -0.2900    -1.1430 h1         1 70Z       0.048367
     37 H5           2.1530     1.1650    -1.5400 h1         1 70Z       0.048367
     38 H6           1.5570    -0.4240    -2.0380 h1         1 70Z       0.048367
     39 H7           3.6280     1.9060    -5.7710 h1         1 70Z       0.063200
     40 H8           2.5850     3.3350    -5.7460 h1         1 70Z       0.063200
     41 H9           2.7140     1.2780    -7.9810 hc         1 70Z       0.048700
     42 H10          1.6710     2.7070    -7.9560 hc         1 70Z       0.048700
     43 H11          4.7100     2.7330    -7.8650 hc         1 70Z       0.043200
     44 H12          3.6680     4.1620    -7.8400 hc         1 70Z       0.043200
     45 H13          1.5730    -0.1380    -4.2640 h1         1 70Z       0.044033
     46 H14          2.8110    -0.1890    -5.5270 h1         1 70Z       0.044033
     47 H15          1.1180    -0.4970    -5.9350 h1         1 70Z       0.044033
     48 H16          3.7880     2.1040   -10.0750 hc         1 70Z       0.035367
     49 H17          4.5160     3.7150   -10.1230 hc         1 70Z       0.035367
     50 H18          2.7570     3.5420   -10.0500 hc         1 70Z       0.035367
     51 H19          0.6340     1.3500    -2.2280 ha         1 70Z       0.153000
     52 H20         -3.6120    -1.2570    -2.5850 ha         1 70Z       0.149000
     53 H21         -3.3730    -1.4230    -0.3500 ho         1 70Z       0.426000
     54 H22         -1.9450     1.1210    -6.5460 hn         1 70Z       0.345700
     55 H23          0.2890    -0.5360     2.3640 ha         1 70Z       0.166000
     56 H24          5.9630    -0.9900     3.9490 h1         1 70Z       0.050450
     57 H25          5.7220     0.7540     4.1600 h1         1 70Z       0.050450
     58 H26          5.9210     0.5120     6.5920 h1         1 70Z       0.054700
     59 H27          7.3500    -0.1810     5.8040 h1         1 70Z       0.054700
     60 H28          4.4930    -2.7780     7.2300 h1         1 70Z       0.054700
     61 H29          4.2130    -1.0410     7.4460 h1         1 70Z       0.054700
     62 H30          4.2590    -2.5380     4.8000 h1         1 70Z       0.050450
     63 H31          2.8240    -1.8790     5.6060 h1         1 70Z       0.050450
     64 O8          -2.4340    -1.3580    -0.2940 oh         1 70Z      -0.476100
     65 C22          2.0810     0.1210    -1.2620 c3         1 70Z       0.078300
@<TRIPOS>BOND
     1    65    17 1   
     2    18     1 2   
     3    17     1 1   
     4    17     7 1   
     5     1    19 1   
     6    16    14 1   
     7    25     7 ar  
     8    25     9 ar  
     9     7    10 ar  
    10    14    13 1   
    11    19    20 ar  
    12    19     2 ar  
    13    13    12 1   
    14    64     2 1   
    15     9    26 ar  
    16    20     4 ar  
    17    10     8 ar  
    18     2    21 ar  
    19    26     8 ar  
    20    26    11 1   
    21    15    27 1   
    22    12    27 1   
    23    32    11 1   
    24    32    31 1   
    25    27     6 1   
    26     4     3 ar  
    27     4     5 2   
    28    21     3 ar  
    29    11    28 1   
    30     6     5 1   
    31     6    24 2   
    32     3    23 2   
    33     5    22 1   
    34    31    30 1   
    35    28    29 1   
    36    23    22 1   
    37    30    29 1   
    38     8    33 1   
    39     9    34 1   
    40    10    35 1   
    41    65    36 1   
    42    65    37 1   
    43    65    38 1   
    44    12    39 1   
    45    12    40 1   
    46    13    41 1   
    47    13    42 1   
    48    14    43 1   
    49    14    44 1   
    50    15    45 1   
    51    15    46 1   
    52    15    47 1   
    53    16    48 1   
    54    16    49 1   
    55    16    50 1   
    56    20    51 1   
    57    21    52 1   
    58    64    53 1   
    59    22    54 1   
    60    25    55 1   
    61    28    56 1   
    62    28    57 1   
    63    29    58 1   
    64    29    59 1   
    65    31    60 1   
    66    31    61 1   
    67    32    62 1   
    68    32    63 1   
@<TRIPOS>SUBSTRUCTURE
     1 70Z         1 TEMP              0 ****  ****    0 ROOT
