@<TRIPOS>MOLECULE
molecule
   57    62     1     0     0
SMALL
bcc


@<TRIPOS>ATOM
      1 C            0.0000     0.0000     0.0000 ca         1 710      -0.154000
      2 C1           1.3990     0.0000     0.0000 ca         1 710      -0.056500
      3 C2           2.1000     0.0000     1.1960 ca         1 710      -0.127000
      4 C3          -0.6920     0.0060     1.1740 ca         1 710      -0.061000
      5 C4          -0.0020     0.0120     2.3900 ca         1 710      -0.239900
      6 C5           1.4050     0.0120     2.4010 ca         1 710      -0.017200
      7 N            1.7950     0.0180     3.7170 na         1 710      -0.048100
      8 N6           0.6600     0.0220     4.5350 nc         1 710      -0.475100
      9 C7          -0.4250     0.0180     3.7960 cd         1 710       0.436200
     10 C8          -1.8170     0.0210     4.2890 cd         1 710      -0.074700
     11 N9          -2.8520    -0.7080     3.7490 na         1 710      -0.177400
     12 C10         -2.2700     0.7390     5.3470 cc         1 710      -0.154200
     13 C11         -3.6970     0.4480     5.4800 ca         1 710      -0.112800
     14 C12         -4.0100    -0.4680     4.4560 ca         1 710      -0.027200
     15 C13         -5.3140    -0.9350     4.3370 ca         1 710      -0.149000
     16 C14         -6.2810    -0.5010     5.2180 ca         1 710      -0.083000
     17 C15         -5.9680     0.4010     6.2250 ca         1 710      -0.114300
     18 C16         -4.6940     0.8750     6.3620 ca         1 710      -0.074000
     19 C17         -7.0430     0.8620     7.1760 c3         1 710       0.186100
     20 N18         -7.0920    -0.0410     8.3330 n3         1 710      -0.665600
     21 C19         -7.9740     0.5890     9.3220 c3         1 710       0.132300
     22 C20         -8.0690    -0.2950    10.5670 c3         1 710      -0.077400
     23 C21         -6.6780    -0.4430    11.1890 c3         1 710      -0.083400
     24 C22         -5.7150    -0.9860    10.1280 c3         1 710      -0.077400
     25 C23         -5.7430    -0.0670     8.9060 c3         1 710       0.132300
     26 C24          2.1370    -0.0060    -1.2880 cc         1 710       0.274500
     27 C25          1.8180    -0.7360    -2.4480 cc         1 710       0.222300
     28 N26          2.7430    -0.4310    -3.3280 nd         1 710      -0.522800
     29 N27          3.5690     0.3980    -2.7950 na         1 710       0.205900
     30 N28          3.2380     0.6660    -1.5820 nd         1 710      -0.528800
     31 C29          0.6510    -1.6690    -2.6430 c3         1 710       0.129100
     32 O            1.0350    -2.9950    -2.2690 oh         1 710      -0.598800
     33 H           -0.5380     0.0000    -0.9410 ha         1 710       0.136000
     34 H2           3.1840     0.0000     1.1930 ha         1 710       0.147000
     35 H3          -1.7750     0.0060     1.1650 ha         1 710       0.132000
     36 HN           2.7420     0.0190     4.0410 hn         1 710       0.337700
     37 HN9         -2.7740    -1.3220     2.9630 hn         1 710       0.299700
     38 H10         -1.6580     1.2640     6.0710 ha         1 710       0.165000
     39 H13         -5.5690    -1.6390     3.5540 ha         1 710       0.127000
     40 H14         -7.2960    -0.8670     5.1220 ha         1 710       0.137000
     41 H16         -4.4580     1.5780     7.1510 ha         1 710       0.133000
     42 H171        -6.8220     1.8680     7.5120 h1         1 710       0.041200
     43 H172        -8.0010     0.8520     6.6700 h1         1 710       0.041200
     44 H191        -7.5700     1.5560     9.5980 h1         1 710       0.038450
     45 H192        -8.9610     0.7140     8.8940 h1         1 710       0.038450
     46 H201        -8.4460    -1.2710    10.2880 hc         1 710       0.047950
     47 H202        -8.7380     0.1650    11.2860 hc         1 710       0.047950
     48 H211        -6.3300     0.5240    11.5310 hc         1 710       0.039200
     49 H212        -6.7250    -1.1340    12.0220 hc         1 710       0.039200
     50 H221        -6.0240    -1.9830     9.8370 hc         1 710       0.047950
     51 H222        -4.7110    -1.0170    10.5340 hc         1 710       0.047950
     52 H231        -5.4600     0.9350     9.2050 h1         1 710       0.038450
     53 H232        -5.0450    -0.4360     8.1640 h1         1 710       0.038450
     54 H27          4.3670     0.7820    -3.2620 hn         1 710       0.370700
     55 H291         0.3510    -1.6600    -3.6840 h1         1 710       0.040700
     56 H292        -0.1770    -1.3450    -2.0250 h1         1 710       0.040700
     57 HO           0.4610    -3.6170    -2.6850 ho         1 710       0.406000
@<TRIPOS>BOND
     1     1     2 ar  
     2     1     4 ar  
     3     1    33 1   
     4     2     3 ar  
     5     2    26 1   
     6     3     6 ar  
     7     3    34 1   
     8     4     5 ar  
     9     4    35 1   
    10     5     6 ar  
    11     5     9 1   
    12     6     7 1   
    13     7     8 1   
    14     7    36 1   
    15     8     9 2   
    16     9    10 1   
    17    10    11 1   
    18    10    12 2   
    19    11    14 1   
    20    11    37 1   
    21    12    13 1   
    22    12    38 1   
    23    13    14 ar  
    24    13    18 ar  
    25    14    15 ar  
    26    15    16 ar  
    27    15    39 1   
    28    16    17 ar  
    29    16    40 1   
    30    17    18 ar  
    31    17    19 1   
    32    18    41 1   
    33    19    20 1   
    34    19    42 1   
    35    19    43 1   
    36    20    21 1   
    37    20    25 1   
    38    21    22 1   
    39    21    44 1   
    40    21    45 1   
    41    22    23 1   
    42    22    46 1   
    43    22    47 1   
    44    23    24 1   
    45    23    48 1   
    46    23    49 1   
    47    24    25 1   
    48    24    50 1   
    49    24    51 1   
    50    25    52 1   
    51    25    53 1   
    52    26    27 1   
    53    26    30 2   
    54    27    28 2   
    55    27    31 1   
    56    28    29 1   
    57    29    30 1   
    58    29    54 1   
    59    31    32 1   
    60    31    55 1   
    61    31    56 1   
    62    32    57 1   
@<TRIPOS>SUBSTRUCTURE
     1 710         1 TEMP              0 ****  ****    0 ROOT
