@<TRIPOS>MOLECULE
711
   66    70     1     0     0
SMALL
bcc


@<TRIPOS>ATOM
      1 N1           0.0000     0.0000     0.0000 n2         1 711      -0.459100
      2 C1           1.3030     0.0000     0.0000 ce         1 711       0.230800
      3 N2           1.9920     0.0000     1.1940 nz         1 711       0.125400
      4 C2           2.0430     0.0010    -1.2820 ca         1 711      -0.189900
      5 C3           1.3460     0.0010    -2.4770 ca         1 711       0.021000
      6 C4           2.0530     0.0010    -3.6890 ca         1 711      -0.053000
      7 C5           1.3800     0.0060    -4.9230 ca         1 711      -0.054000
      8 C6           2.0950     0.0010    -6.0810 ca         1 711      -0.140300
      9 C7           3.4890     0.0020    -6.0620 ca         1 711      -0.063000
     10 C8           4.1740     0.0010    -4.8860 ca         1 711      -0.054000
     11 C9           3.4700     0.0010    -3.6690 ca         1 711      -0.002000
     12 C10          4.1500     0.0020    -2.4380 ca         1 711      -0.027000
     13 C11          3.4480     0.0010    -1.2760 ca         1 711      -0.116000
     14 C12          1.3710     0.0010    -7.4020 c3         1 711      -0.016400
     15 N21          1.1370    -1.3800    -7.8310 na         1 711       0.497800
     16 C21          0.0850    -2.0870    -7.5380 cc         1 711      -0.129200
     17 C22         -1.0760    -1.6050    -6.7060 c3         1 711      -0.000400
     18 N22          0.1840    -3.3250    -8.0910 na         1 711       0.400700
     19 C23          1.3860    -3.3750    -8.7730 ca         1 711      -0.259200
     20 C24          2.0310    -4.3510    -9.5200 ca         1 711      -0.035000
     21 C25          3.2580    -4.0830   -10.0870 ca         1 711      -0.057000
     22 C26          3.8570    -2.8390    -9.9140 ca         1 711       0.185100
     23 C27          3.2320    -1.8590    -9.1690 ca         1 711      -0.116000
     24 C28          1.9850    -2.1170    -8.5930 ca         1 711      -0.255200
     25 O            5.0680    -2.5880   -10.4790 os         1 711      -0.293900
     26 C31          4.8310    -1.7490   -11.6110 c3         1 711       0.165100
     27 C32          4.4820    -2.6160   -12.8230 c3         1 711      -0.064900
     28 C33          4.1910    -1.7090   -14.0280 c3         1 711       0.183800
     29 N31          5.3430    -0.8210   -14.2330 nh         1 711      -0.513600
     30 C34          5.8190    -0.0080   -13.1060 c3         1 711       0.183800
     31 C35          6.0880    -0.9310   -11.9120 c3         1 711      -0.064900
     32 C36          5.9580    -0.7470   -15.4550 c2         1 711       0.472200
     33 N32          7.0330    -0.0420   -15.5960 n2         1 711      -0.743100
     34 C37          5.3830    -1.4880   -16.6350 c3         1 711      -0.019400
     35 HN1         -0.5010    -0.0000     0.8660 hn         1 711       0.345400
     36 HN21         1.3420    -0.0050     1.9540 hn         1 711       0.230800
     37 HN2A         2.5640     0.8200     1.2490 hn         1 711       0.230800
     38 H3           0.2710     0.1360    -2.4770 ha         1 711       0.134000
     39 H5           0.2970     0.0060    -4.9530 ha         1 711       0.116000
     40 H7           4.0350    -0.0020    -6.9970 ha         1 711       0.121000
     41 H8           5.2580     0.0020    -4.8880 ha         1 711       0.133000
     42 H10          5.2330     0.0020    -2.4170 ha         1 711       0.133000
     43 H11          3.9790     0.0010    -0.3310 ha         1 711       0.088000
     44 H121         0.4220     0.5120    -7.2940 h1         1 711       0.069700
     45 H122         1.9730     0.5120    -8.1440 h1         1 711       0.069700
     46 H221        -1.2150    -0.5420    -6.8620 hc         1 711       0.042033
     47 H222        -1.9750    -2.1330    -7.0000 hc         1 711       0.042033
     48 H223        -0.8730    -1.7930    -5.6590 hc         1 711       0.042033
     49 HN22        -0.4510    -4.0970    -8.0430 hn         1 711       0.164700
     50 H24          1.5700    -5.3210    -9.6580 ha         1 711       0.133000
     51 H25          3.7570    -4.8440   -10.6740 ha         1 711       0.149000
     52 H27          3.7020    -0.8920    -9.0370 ha         1 711       0.135000
     53 H31          4.0080    -1.0770   -11.4010 h1         1 711       0.009700
     54 H321         3.6050    -3.2110   -12.6000 hc         1 711       0.034200
     55 H322         5.3170    -3.2660   -13.0550 hc         1 711       0.034200
     56 H331         3.3060    -1.1160   -13.8300 h1         1 711       0.029200
     57 H332         4.0380    -2.3170   -14.9110 h1         1 711       0.029200
     58 H341         6.7350     0.4990   -13.3850 h1         1 711       0.029200
     59 H342         5.0620     0.7190   -12.8380 h1         1 711       0.029200
     60 H351         6.3460    -0.3340   -11.0450 hc         1 711       0.034200
     61 H352         6.9050    -1.6010   -12.1520 hc         1 711       0.034200
     62 HN32         7.4160     0.4500   -14.8130 hn         1 711       0.324400
     63 H371         5.4840    -2.5550   -16.4750 hc         1 711       0.021700
     64 H372         5.9170    -1.2060   -17.5340 hc         1 711       0.021700
     65 H373         4.3350    -1.2370   -16.7430 hc         1 711       0.021700
     66 H23          2.5720    -0.8140     1.2440 hn         1 711       0.230800
@<TRIPOS>BOND
     1     1     2 2   
     2     1    35 1   
     3     2     3 1   
     4     2     4 1   
     5     3    36 1   
     6     3    37 1   
     7     3    66 1   
     8     4     5 ar  
     9     4    13 ar  
    10     5     6 ar  
    11     5    38 1   
    12     6     7 ar  
    13     6    11 ar  
    14     7     8 ar  
    15     7    39 1   
    16     8     9 ar  
    17     8    14 1   
    18     9    10 ar  
    19     9    40 1   
    20    10    11 ar  
    21    10    41 1   
    22    11    12 ar  
    23    12    13 ar  
    24    12    42 1   
    25    13    43 1   
    26    14    15 1   
    27    14    44 1   
    28    14    45 1   
    29    15    16 2   
    30    15    24 1   
    31    16    17 1   
    32    16    18 1   
    33    17    46 1   
    34    17    47 1   
    35    17    48 1   
    36    18    19 1   
    37    18    49 1   
    38    19    20 ar  
    39    19    24 ar  
    40    20    21 ar  
    41    20    50 1   
    42    21    22 ar  
    43    21    51 1   
    44    22    23 ar  
    45    22    25 1   
    46    23    24 ar  
    47    23    52 1   
    48    25    26 1   
    49    26    27 1   
    50    26    31 1   
    51    26    53 1   
    52    27    28 1   
    53    27    54 1   
    54    27    55 1   
    55    28    29 1   
    56    28    56 1   
    57    28    57 1   
    58    29    30 1   
    59    29    32 1   
    60    30    31 1   
    61    30    58 1   
    62    30    59 1   
    63    31    60 1   
    64    31    61 1   
    65    32    33 2   
    66    32    34 1   
    67    33    62 1   
    68    34    63 1   
    69    34    64 1   
    70    34    65 1   
@<TRIPOS>SUBSTRUCTURE
     1 711         1 TEMP              0 ****  ****    0 ROOT
