@<TRIPOS>MOLECULE
molecule
   66    70     1     0     0
SMALL
bcc


@<TRIPOS>ATOM
      1 N1           0.0000     0.0000     0.0000 n2         1 711      -0.708100
      2 C1           1.3030     0.0000     0.0000 ce         1 711       0.519800
      3 N2           1.9920     0.0000     1.1940 nz         1 711      -0.742600
      4 C2           2.0430     0.0010    -1.2820 ca         1 711      -0.220900
      5 C3           1.3460     0.0010    -2.4770 ca         1 711      -0.052000
      6 C4           2.0530     0.0010    -3.6890 ca         1 711      -0.040000
      7 C5           1.3800     0.0060    -4.9230 ca         1 711      -0.089000
      8 C6           2.0950     0.0010    -6.0810 ca         1 711      -0.121300
      9 C7           3.4890     0.0020    -6.0620 ca         1 711      -0.087000
     10 C8           4.1740     0.0010    -4.8860 ca         1 711      -0.088000
     11 C9           3.4700     0.0010    -3.6690 ca         1 711      -0.001000
     12 C10          4.1500     0.0020    -2.4380 ca         1 711      -0.060000
     13 C11          3.4480     0.0010    -1.2760 ca         1 711      -0.136000
     14 C12          1.3710     0.0010    -7.4020 c3         1 711       0.078600
     15 N21          1.1370    -1.3800    -7.8310 na         1 711      -0.053200
     16 C21          0.0850    -2.0870    -7.5380 cc         1 711       0.293800
     17 C22         -1.0760    -1.6050    -6.7060 c3         1 711      -0.133400
     18 N22          0.1840    -3.3250    -8.0910 na         1 711      -0.187300
     19 C23          1.3860    -3.3750    -8.7730 ca         1 711      -0.081200
     20 C24          2.0310    -4.3510    -9.5200 ca         1 711      -0.085000
     21 C25          3.2580    -4.0830   -10.0870 ca         1 711      -0.089000
     22 C26          3.8570    -2.8390    -9.9140 ca         1 711       0.166100
     23 C27          3.2320    -1.8590    -9.1690 ca         1 711      -0.148000
     24 C28          1.9850    -2.1170    -8.5930 ca         1 711      -0.079200
     25 O            5.0680    -2.5880   -10.4790 os         1 711      -0.304900
     26 C31          4.8310    -1.7490   -11.6110 c3         1 711       0.126100
     27 C32          4.4820    -2.6160   -12.8230 c3         1 711      -0.113400
     28 C33          4.1910    -1.7090   -14.0280 c3         1 711       0.245300
     29 N31          5.3430    -0.8210   -14.2330 nh         1 711      -0.798600
     30 C34          5.8190    -0.0080   -13.1060 c3         1 711       0.245300
     31 C35          6.0880    -0.9310   -11.9120 c3         1 711      -0.113400
     32 C36          5.9580    -0.7470   -15.4550 c2         1 711       0.645200
     33 N32          7.0330    -0.0420   -15.5960 n2         1 711      -0.899100
     34 C37          5.3830    -1.4880   -16.6350 c3         1 711      -0.184400
     35 HN1         -0.5020     0.0000    -0.8660 hn         1 711       0.476400
     36 HN21         2.5630     0.8200     1.2490 hn         1 711       0.478800
     37 HN2A         2.5710    -0.8150     1.2450 hn         1 711       0.478800
     38 H3           0.2710     0.1360    -2.4770 ha         1 711       0.141000
     39 H5           0.2970     0.0060    -4.9530 ha         1 711       0.137000
     40 H7           4.0350    -0.0020    -6.9970 ha         1 711       0.154000
     41 H8           5.2580     0.0020    -4.8880 ha         1 711       0.170000
     42 H10          5.2330     0.0020    -2.4170 ha         1 711       0.171000
     43 H11          3.9790     0.0040    -0.3310 ha         1 711       0.121000
     44 H121         0.4220     0.5120    -7.2940 h1         1 711       0.102700
     45 H122         1.9730     0.5120    -8.1440 h1         1 711       0.102700
     46 H221        -0.8810    -1.8110    -5.6610 hc         1 711       0.091367
     47 H222        -1.9790    -2.1190    -7.0140 hc         1 711       0.091367
     48 H223        -1.2020    -0.5380    -6.8470 hc         1 711       0.091367
     49 HN22        -0.4570    -4.0930    -8.0640 hn         1 711       0.360700
     50 H24          1.5700    -5.3210    -9.6580 ha         1 711       0.169000
     51 H25          3.7570    -4.8440   -10.6740 ha         1 711       0.187000
     52 H27          3.7020    -0.8920    -9.0370 ha         1 711       0.161000
     53 H31          4.0080    -1.0770   -11.4010 h1         1 711       0.036700
     54 H321         3.6050    -3.2110   -12.6000 hc         1 711       0.063450
     55 H322         5.3170    -3.2660   -13.0550 hc         1 711       0.063450
     56 H331         3.3060    -1.1160   -13.8300 h1         1 711       0.061950
     57 H332         4.0380    -2.3170   -14.9110 h1         1 711       0.061950
     58 H341         5.0620     0.7190   -12.8380 h1         1 711       0.061950
     59 H342         6.7350     0.4990   -13.3850 h1         1 711       0.061950
     60 H351         6.3460    -0.3340   -11.0450 hc         1 711       0.063450
     61 H352         6.9050    -1.6010   -12.1520 hc         1 711       0.063450
     62 HN32         7.4830     0.0110   -16.4890 hn         1 711       0.421400
     63 H371         4.3320    -1.2440   -16.7380 hc         1 711       0.056700
     64 H372         5.4910    -2.5550   -16.4790 hc         1 711       0.056700
     65 H373         5.9110    -1.2000   -17.5350 hc         1 711       0.056700
     66 H23          1.3410    -0.0080     1.9540 hn         1 711       0.478800
@<TRIPOS>BOND
     1     1     2 2
     2     1    35 1
     3     2     3 1
     4     2     4 1
     5     3    36 1
     6     3    37 1
     7     4     5 ar
     8     4    13 ar
     9     5     6 ar
    10     5    38 1
    11     6     7 ar
    12     6    11 ar
    13     7     8 ar
    14     7    39 1
    15     8     9 ar
    16     8    14 1
    17     9    10 ar
    18     9    40 1
    19    10    11 ar
    20    10    41 1
    21    11    12 ar
    22    12    13 ar
    23    12    42 1
    24    13    43 1
    25    14    15 1
    26    14    44 1
    27    14    45 1
    28    15    16 2
    29    15    24 1
    30    16    17 1
    31    16    18 1
    32    17    46 1
    33    17    47 1
    34    17    48 1
    35    18    19 1
    36    18    49 1
    37    19    20 ar
    38    19    24 ar
    39    20    21 ar
    40    20    50 1
    41    21    22 ar
    42    21    51 1
    43    22    23 ar
    44    22    25 1
    45    23    24 ar
    46    23    52 1
    47    25    26 1
    48    26    27 1
    49    26    31 1
    50    26    53 1
    51    27    28 1
    52    27    54 1
    53    27    55 1
    54    28    29 1
    55    28    56 1
    56    28    57 1
    57    29    30 1
    58    29    32 1
    59    30    31 1
    60    30    58 1
    61    30    59 1
    62    31    60 1
    63    31    61 1
    64    32    33 2
    65    32    34 1
    66    33    62 1
    67    34    63 1
    68    34    64 1
    69    34    65 1
    70    66     3 1
@<TRIPOS>SUBSTRUCTURE
     1 711         1 TEMP              0 ****  ****    0 ROOT
