@<TRIPOS>MOLECULE
712
   71    73     1     0     0
SMALL
bcc


@<TRIPOS>ATOM
      1 C            0.0000     0.0000     0.0000 c3         1 712      -0.130800
      2 N            1.4690     0.0000     0.0000 nz         1 712       0.053400
      3 C1          -0.5010     0.0000     1.4220 c          1 712       0.659100
      4 O            0.1730    -0.6670     2.3710 os         1 712      -0.438900
      5 O2          -1.5110     0.6000     1.7060 o          1 712      -0.489000
      6 C3          -0.5110    -1.2490    -0.7210 c3         1 712      -0.005100
      7 C4          -0.5100     1.2490    -0.7210 c3         1 712       0.038900
      8 C5          -0.0080     1.2500    -2.1420 ca         1 712      -0.176300
      9 C6           1.2010     1.8430    -2.4480 ca         1 712      -0.106500
     10 C7           0.9120     1.2480    -4.7490 ca         1 712      -0.062000
     11 C8          -0.2960     0.6500    -4.4420 ca         1 712      -0.073000
     12 C9           1.6620     1.8430    -3.7510 ca         1 712      -0.073000
     13 C10         -0.7560     0.6510    -3.1390 ca         1 712      -0.106500
     14 C11          2.1400    -2.9030     6.3410 ca         1 712      -0.057000
     15 C12          2.3860    -1.5440     6.1460 ca         1 712      -0.112600
     16 C13          1.5660    -0.8070     5.2900 ca         1 712      -0.103000
     17 C14          0.5150    -1.4220     4.6410 ca         1 712      -0.131300
     18 C15          0.2710    -2.7690     4.8340 ca         1 712      -0.110000
     19 C16          1.0810    -3.5120     5.6840 ca         1 712       0.101600
     20 N17          0.8300    -4.8730     5.8750 nh         1 712      -0.369900
     21 N19          3.7490     0.4260     6.6520 ns         1 712      -0.204900
     22 O20          4.2250    -1.5310     7.5870 o          1 712      -0.627100
     23 S            2.0580    -5.8850     6.3380 s6         1 712       0.958900
     24 C21          2.0110    -5.8530     8.1510 c3         1 712       0.007700
     25 O22          1.6630    -7.1600     5.8510 o          1 712      -0.571800
     26 O23          3.2350    -5.2490     5.8570 o          1 712      -0.571800
     27 C24         -0.5180    -5.4060     5.6670 c3         1 712       0.258100
     28 C25          4.8650     1.0770     7.3430 c3         1 712       0.082000
     29 C26          5.3040     2.2870     6.5590 ca         1 712      -0.125300
     30 C27          4.3600     3.1090     5.9700 ca         1 712      -0.073500
     31 C28          6.1090     4.5060     5.1200 ca         1 712       0.110900
     32 C29          7.0530     3.6870     5.7150 ca         1 712      -0.124500
     33 C30          4.7610     4.2170     5.2510 ca         1 712      -0.124500
     34 C31          6.6490     2.5780     6.4330 ca         1 712      -0.073500
     35 C32          4.4170     1.5110     8.7410 c3         1 712      -0.013100
     36 F            6.5020     5.5920     4.4170 f          1 712      -0.123900
     37 C33         -0.3690    -0.6230     3.7180 c3         1 712       0.311700
     38 HN1          1.8020     0.8690     0.3680 hn         1 712       0.236467
     39 HN2          1.8020    -0.7530     0.5690 hn         1 712       0.236467
     40 H31A         0.0550    -1.3970    -1.6320 hc         1 712       0.046033
     41 H32         -0.3900    -2.1120    -0.0770 hc         1 712       0.046033
     42 H33         -1.5590    -1.1230    -0.9630 hc         1 712       0.046033
     43 H41         -0.1490     2.1340    -0.2110 hc         1 712       0.064700
     44 H42         -1.5940     1.2490    -0.7210 hc         1 712       0.064700
     45 H6           1.7890     2.3090    -1.6660 ha         1 712       0.106000
     46 H7           1.2730     1.2480    -5.7710 ha         1 712       0.124000
     47 H8          -0.8830     0.1830    -5.2240 ha         1 712       0.122500
     48 H9           2.6100     2.3100    -3.9910 ha         1 712       0.122500
     49 H10         -1.7030     0.1820    -2.8980 ha         1 712       0.106000
     50 H11          2.7730    -3.4800     7.0030 ha         1 712       0.157000
     51 H13          1.7540     0.2490     5.1360 ha         1 712       0.102000
     52 H15         -0.5560    -3.2470     4.3220 ha         1 712       0.119000
     53 HN19         3.1760     0.9510     6.0220 hn         1 712       0.177500
     54 H211         1.2870    -5.1170     8.4800 h1         1 712       0.073033
     55 H212         1.7260    -6.8300     8.5220 h1         1 712       0.073033
     56 H213         2.9900    -5.5920     8.5330 h1         1 712       0.073033
     57 H241        -0.6100    -6.3620     6.1690 h1         1 712       0.012367
     58 H242        -1.2460    -4.7140     6.0730 h1         1 712       0.012367
     59 H243        -0.6950    -5.5360     4.6060 h1         1 712       0.012367
     60 H25          5.6910     0.3820     7.4280 h1         1 712       0.064700
     61 H27          3.3200     2.8900     6.1830 ha         1 712       0.112000
     62 H29          8.1080     3.9130     5.6150 ha         1 712       0.122000
     63 H30          4.0220     4.8590     4.7870 ha         1 712       0.122000
     64 H31          7.3880     1.9360     6.8990 ha         1 712       0.112000
     65 H321         3.3350     1.5060     8.7910 hc         1 712       0.017367
     66 H322         4.7830     2.5100     8.9430 hc         1 712       0.017367
     67 H323         4.8150     0.8230     9.4770 hc         1 712       0.017367
     68 H331        -1.3670    -1.0440     3.7200 h1         1 712       0.025200
     69 H332        -0.4090     0.4050     4.0580 h1         1 712       0.025200
     70 HN3          1.8020    -0.1390    -0.9330 hn         1 712       0.236467
     71 C18          3.5120    -0.8870     6.8420 c          1 712       0.592700
@<TRIPOS>BOND
     1     1     2 1   
     2     1     3 1   
     3     1     6 1   
     4     1     7 1   
     5     2    38 1   
     6     2    39 1   
     7     2    70 1   
     8     3     4 1   
     9     3     5 2   
    10     4    37 1   
    11     6    40 1   
    12     6    41 1   
    13     6    42 1   
    14     7     8 1   
    15     7    43 1   
    16     7    44 1   
    17     8     9 ar  
    18     8    13 ar  
    19     9    12 ar  
    20     9    45 1   
    21    10    11 ar  
    22    10    12 ar  
    23    10    46 1   
    24    11    13 ar  
    25    11    47 1   
    26    12    48 1   
    27    13    49 1   
    28    14    15 ar  
    29    14    19 ar  
    30    14    50 1   
    31    15    16 ar  
    32    15    71 1   
    33    16    17 ar  
    34    16    51 1   
    35    17    18 ar  
    36    17    37 1   
    37    18    19 ar  
    38    18    52 1   
    39    19    20 1   
    40    20    23 1   
    41    20    27 1   
    42    21    28 1   
    43    21    53 1   
    44    21    71 1   
    45    22    71 2   
    46    23    24 1   
    47    23    25 2   
    48    23    26 2   
    49    24    54 1   
    50    24    55 1   
    51    24    56 1   
    52    27    57 1   
    53    27    58 1   
    54    27    59 1   
    55    28    29 1   
    56    28    35 1   
    57    28    60 1   
    58    29    30 ar  
    59    29    34 ar  
    60    30    33 ar  
    61    30    61 1   
    62    31    32 ar  
    63    31    33 ar  
    64    31    36 1   
    65    32    34 ar  
    66    32    62 1   
    67    33    63 1   
    68    34    64 1   
    69    35    65 1   
    70    35    66 1   
    71    35    67 1   
    72    37    68 1   
    73    37    69 1   
@<TRIPOS>SUBSTRUCTURE
     1 712         1 TEMP              0 ****  ****    0 ROOT
