@<TRIPOS>MOLECULE
molecule
   45    47     1     0     0
SMALL
bcc


@<TRIPOS>ATOM
      1 Cl1          0.0000     0.0000     0.0000 cl         1 713      -0.084400
      2 C17          1.7360     0.0000     0.0000 ca         1 713       0.061400
      3 C19          2.4280     0.0000     1.1970 ca         1 713      -0.167000
      4 C20          3.8120    -0.0010     1.1960 ca         1 713       0.150900
      5 F21          4.4890    -0.0020     2.3660 f          1 713      -0.131900
      6 C22          4.5030    -0.0010    -0.0040 ca         1 713      -0.170000
      7 C23          3.8090    -0.0010    -1.2000 ca         1 713      -0.078000
      8 C16          2.4280    -0.0060    -1.1990 ca         1 713      -0.128300
      9 C15          1.6740    -0.0120    -2.5030 c3         1 713       0.162300
     10 N14          1.2220     1.3470    -2.8120 ns         1 713      -0.580900
     11 C13          0.5210     1.5840    -3.9390 c          1 713       0.673700
     12 O24          0.2650     0.6710    -4.6990 o          1 713      -0.605100
     13 C12          0.0660     2.9560    -4.2520 ca         1 713      -0.136600
     14 C25         -0.6590     3.2040    -5.4180 ca         1 713      -0.089000
     15 C26         -1.0820     4.4870    -5.7030 ca         1 713      -0.116000
     16 C11          0.3540     4.0060    -3.3790 ca         1 713      -0.089000
     17 C10         -0.0750     5.2830    -3.6750 ca         1 713      -0.116000
     18 C9          -0.7890     5.5240    -4.8360 ca         1 713      -0.097300
     19 C8          -1.2540     6.9210    -5.1540 c3         1 713       0.121600
     20 N4          -0.2250     7.6150    -5.9330 na         1 713       0.067400
     21 N3          -0.1180     7.6290    -7.3290 nc         1 713      -0.514800
     22 C2           0.9240     8.3500    -7.6530 cc         1 713       0.343600
     23 C1           1.4090     8.6250    -9.0530 c3         1 713      -0.109400
     24 C7           1.5150     8.8170    -6.4740 cc         1 713      -0.347300
     25 C5           0.7850     8.3550    -5.4310 cd         1 713      -0.067600
     26 C6           1.0590     8.6140    -3.9720 c3         1 713      -0.028800
     27 H1           1.8870    -0.0200     2.1360 ha         1 713       0.162000
     28 H2           5.5860     0.0000    -0.0060 ha         1 713       0.153000
     29 H3           4.3500    -0.0030    -2.1390 ha         1 713       0.150000
     30 H4           0.8150    -0.6680    -2.4210 h1         1 713       0.067200
     31 H5           2.3240    -0.3650    -3.2950 h1         1 713       0.067200
     32 H6           1.4670     2.1060    -2.2070 hn         1 713       0.318500
     33 H7          -0.8900     2.3930    -6.0970 ha         1 713       0.144000
     34 H8          -1.6440     4.6810    -6.6080 ha         1 713       0.139500
     35 H9           0.9120     3.8180    -2.4700 ha         1 713       0.144000
     36 H10          0.1490     6.0990    -2.9990 ha         1 713       0.139500
     37 H11         -1.4330     7.4610    -4.2310 h1         1 713       0.071200
     38 H12         -2.1710     6.8740    -5.7280 h1         1 713       0.071200
     39 H13          1.3860     9.6920    -9.2400 hc         1 713       0.049367
     40 H14          2.4230     8.2600    -9.1620 hc         1 713       0.049367
     41 H15          0.7650     8.1200    -9.7630 hc         1 713       0.049367
     42 H16          2.3960     9.4430    -6.4070 ha         1 713       0.153000
     43 H17          1.6490     9.5160    -3.8690 hc         1 713       0.049033
     44 H18          0.1200     8.7350    -3.4440 hc         1 713       0.049033
     45 H19          1.6030     7.7760    -3.5530 hc         1 713       0.049033
@<TRIPOS>BOND
     1    23    22 1
     2    22    24 1
     3    22    21 2
     4    24    25 2
     5    21    20 1
     6    25    20 1
     7    25    26 1
     8    20    19 1
     9    19    18 1
    10    18    17 ar
    11    18    15 ar
    12    17    16 ar
    13    15    14 ar
    14    16    13 ar
    15    14    13 ar
    16    13    11 1
    17     1     2 1
    18    11    10 1
    19    11    12 2
    20    10     9 1
    21     3     2 ar
    22     3     4 ar
    23     2     8 ar
    24     5     4 1
    25     4     6 ar
    26     8     9 1
    27     8     7 ar
    28     6     7 ar
    29     3    27 1
    30     6    28 1
    31     7    29 1
    32     9    30 1
    33     9    31 1
    34    10    32 1
    35    14    33 1
    36    15    34 1
    37    16    35 1
    38    17    36 1
    39    19    37 1
    40    19    38 1
    41    23    39 1
    42    23    40 1
    43    23    41 1
    44    24    42 1
    45    26    43 1
    46    26    44 1
    47    26    45 1
@<TRIPOS>SUBSTRUCTURE
     1 713         1 TEMP              0 ****  ****    0 ROOT
