@<TRIPOS>MOLECULE
molecule
   49    49     1     0     0
SMALL
bcc


@<TRIPOS>ATOM
      1 O1           0.0000     0.0000     0.0000 o          1 714      -0.850500
      2 P1           1.6110     0.0000     0.0000 p5         1 714       1.043200
      3 O3           2.1460     0.0000     1.5180 o          1 714      -0.850500
      4 O2           2.1030    -1.2080    -0.6980 o          1 714      -0.850500
      5 C1           2.2180     1.4880    -0.8590 c3         1 714      -0.340100
      6 P2           1.6110     2.9770     0.0010 p5         1 714       1.043200
      7 O4           2.1050     4.1860    -0.6970 o          1 714      -0.850500
      8 O5           0.0010     2.9780     0.0010 o          1 714      -0.850500
      9 O6           2.1470     2.9770     1.5190 o          1 714      -0.850500
     10 C2           3.7480     1.4880    -0.8580 c3         1 714       0.042300
     11 N1           4.2370     2.6200    -1.6510 na         1 714       0.069900
     12 C7           4.4510     3.7760    -1.0530 ca         1 714      -0.008300
     13 C6           4.9130     4.8680    -1.7720 ca         1 714       0.119100
     14 C5           5.1490     4.7300    -3.1360 ca         1 714      -0.253000
     15 C4           4.9120     3.4970    -3.7230 ca         1 714      -0.222000
     16 C3           4.4570     2.4530    -2.9400 ca         1 714      -0.070300
     17 O7           5.1310     6.0590    -1.1520 os         1 714      -0.301900
     18 C8           5.6080     7.1340    -1.9630 c3         1 714       0.149400
     19 C9           5.7930     8.3830    -1.0980 c3         1 714      -0.084400
     20 C10          6.3030     9.5350    -1.9660 c3         1 714      -0.080400
     21 C11          6.4880    10.7820    -1.1000 c3         1 714      -0.080400
     22 C12          6.9970    11.9340    -1.9680 c3         1 714      -0.082400
     23 C13          7.1820    13.1820    -1.1030 c3         1 714      -0.082400
     24 C14          7.6920    14.3350    -1.9710 c3         1 714      -0.085400
     25 C15          7.8770    15.5820    -1.1050 c3         1 714      -0.092100
     26 H1           1.8570     1.4890    -1.8800 hc         1 714       0.045700
     27 H2           4.1090     1.5770     0.1600 h1         1 714       0.074200
     28 H2A          4.1090     0.5620    -1.2890 h1         1 714       0.074200
     29 H7           4.2630     3.8730     0.0100 h4         1 714       0.241000
     30 H5           5.5080     5.5650    -3.7250 ha         1 714       0.097000
     31 H4           5.0870     3.3510    -4.7820 ha         1 714       0.102000
     32 H3           4.2700     1.4870    -3.3930 h4         1 714       0.161000
     33 H8           6.5560     6.8590    -2.4070 h1         1 714       0.020200
     34 H8A          4.8890     7.3420    -2.7470 h1         1 714       0.020200
     35 H9           4.8440     8.6580    -0.6530 hc         1 714       0.057700
     36 H9A          6.5120     8.1750    -0.3150 hc         1 714       0.057700
     37 H10          5.5840     9.7420    -2.7490 hc         1 714       0.034700
     38 H10A         7.2510     9.2600    -2.4100 hc         1 714       0.034700
     39 H11          7.2070    10.5750    -0.3170 hc         1 714       0.044200
     40 H11A         5.5390    11.0570    -0.6560 hc         1 714       0.044200
     41 H12          6.2780    12.1410    -2.7510 hc         1 714       0.036700
     42 H12A         7.9460    11.6590    -2.4130 hc         1 714       0.036700
     43 H13          7.9020    12.9750    -0.3190 hc         1 714       0.041200
     44 H13A         6.2340    13.4580    -0.6580 hc         1 714       0.041200
     45 H14          8.6410    14.0590    -2.4150 hc         1 714       0.036700
     46 H14A         6.9730    14.5420    -2.7540 hc         1 714       0.036700
     47 H15          8.5960    15.3750    -0.3220 hc         1 714       0.027367
     48 H15A         6.9280    15.8570    -0.6610 hc         1 714       0.027367
     49 H15B         8.2380    16.3980    -1.7200 hc         1 714       0.027367
@<TRIPOS>BOND
     1     1     2 1
     2     4     2 1
     3     2     3 1
     4     2     5 1
     5     5    10 1
     6     5     6 1
     7     5    26 1
     8     7     6 1
     9     9     6 1
    10     6     8 1
    11    10    11 1
    12    10    27 1
    13    10    28 1
    14    11    12 1
    15    11    16 2
    16    12    13 ar
    17    12    29 1
    18    13    17 1
    19    13    14 ar
    20    15    14 ar
    21    14    30 1
    22    16    15 ar
    23    15    31 1
    24    16    32 1
    25    17    18 1
    26    18    19 1
    27    18    33 1
    28    18    34 1
    29    19    20 1
    30    19    35 1
    31    19    36 1
    32    21    20 1
    33    20    37 1
    34    20    38 1
    35    21    22 1
    36    21    39 1
    37    21    40 1
    38    22    23 1
    39    22    41 1
    40    22    42 1
    41    24    23 1
    42    23    43 1
    43    23    44 1
    44    24    25 1
    45    24    45 1
    46    24    46 1
    47    25    47 1
    48    25    48 1
    49    25    49 1
@<TRIPOS>SUBSTRUCTURE
     1 714         1 TEMP              0 ****  ****    0 ROOT
