@<TRIPOS>MOLECULE
714
   49    49     1     0     0
SMALL
bcc


@<TRIPOS>ATOM
      1 O1          0.8010    5.8030    1.3850 o         1 714     -1.221000
      2 P1          1.5580    4.5460    1.1240 p3        1 714      2.558000
      3 O3          2.6050    4.1760    2.1250 o         1 714     -1.221000
      4 O2          0.7640    3.3900    0.5980 o         1 714     -1.221000
      5 C1          2.6970    4.9520   -0.7530 c2        1 714     -1.457000
      6 P2          3.4010    6.2450   -1.3900 p5        1 714      2.122000
      7 O4          4.4210    5.4600   -2.5870 os        1 714     -0.739000
      8 O5          2.5650    7.1110   -2.2670 o         1 714     -0.926000
      9 O6          4.5080    6.9360   -0.6540 o         1 714     -0.926000
     10 C2          3.5390    3.7930   -0.4190 c3        1 714      0.034000
     11 N1          4.5390    3.3900   -1.4310 n3        1 714     -0.260000
     12 C7          5.2760    4.5390   -2.0190 c3        1 714      0.227000
     13 C6          6.3080    4.0600   -3.0350 c2        1 714     -0.056000
     14 C5          6.3130    2.8050   -3.5520 c2        1 714     -0.129000
     15 C4          5.3680    1.8390   -3.0780 c2        1 714     -0.417000
     16 C3          4.4950    2.2000   -2.0680 c2        1 714      0.066000
     17 O7          7.3490    4.9080   -3.4050 os        1 714     -0.267000
     18 C8          6.9900    6.2690   -3.6540 c3        1 714     -0.015000
     19 C9          7.3490    7.1320   -2.4570 c3        1 714     -0.198000
     20 C10         7.0230    8.5900   -2.7060 c3        1 714     -0.126000
     21 C11         6.6100    9.2650   -1.4150 c3        1 714     -0.198000
     22 C12         6.1630   10.6910   -1.6480 c3        1 714     -0.140000
     23 C13         5.6470   11.3090   -0.3660 c3        1 714     -0.163000
     24 C14         5.1470   12.7200   -0.5880 c3        1 714     -0.156000
     25 C15         4.6290   13.3320    0.6880 c3        1 714     -0.206000
     26 H1          1.7500    4.6850   -1.2520 ha        1 714      0.133000
     27 H2          2.8970    2.8870   -0.1990 h1        1 714      0.101000
     28 H2A         4.1390    4.0140    0.5180 h1        1 714      0.101000
     29 H7          5.8100    5.0240   -1.1360 h2        1 714      0.095000
     30 H5          7.0570    2.4980   -4.2980 ha        1 714      0.072000
     31 H4          5.3440    0.8400   -3.5140 ha        1 714      0.081000
     32 H3          3.7580    1.4680   -1.6840 h4        1 714      0.110000
     33 H8          5.8970    6.3650   -3.8920 h1        1 714      0.085000
     34 H8A         7.6110    6.5540   -4.5490 h1        1 714      0.085000
     35 H9          6.7420    6.7680   -1.5760 hc        1 714      0.106000
     36 H9A         8.4340    7.0130   -2.2080 hc        1 714      0.106000
     37 H10         7.9030    9.1180   -3.1620 hc        1 714      0.047000
     38 H10A        6.1740    8.6650   -3.4370 hc        1 714      0.047000
     39 H11         5.7590    8.6570   -0.9590 hc        1 714      0.131500
     40 H11A        7.4630    9.2520   -0.6900 hc        1 714      0.131500
     41 H12         7.0100   11.3080   -2.0520 hc        1 714      0.053000
     42 H12A        5.3460   10.7000   -2.4180 hc        1 714      0.053000
     43 H13         4.8160   10.6670    0.0340 hc        1 714      0.095000
     44 H13A        6.4620   11.3170    0.4050 hc        1 714      0.095000
     45 H14         5.9760   13.3560   -1.0010 hc        1 714      0.062000
     46 H14A        4.3290   12.7040   -1.3550 hc        1 714      0.062000
     47 H15         5.4370   13.3860    1.4570 hc        1 714      0.060333
     48 H15A        3.7950   12.7150    1.1020 hc        1 714      0.060333
     49 H15B        4.2490   14.3660    0.5040 hc        1 714      0.060333
@<TRIPOS>BOND
     1    1    2 1   
     2    2    3 1   
     3    2    4 1   
     4    5    6 1   
     5    5   10 1   
     6    5   26 1   
     7    6    7 1   
     8    6    8 1   
     9    6    9 1   
    10    7   12 1   
    11   10   11 1   
    12   10   27 1   
    13   10   28 1   
    14   11   12 1   
    15   11   16 1   
    16   12   13 1   
    17   12   29 1   
    18   13   14 1   
    19   13   17 1   
    20   14   15 1   
    21   14   30 1   
    22   15   16 1   
    23   15   31 1   
    24   16   32 1   
    25   17   18 1   
    26   18   19 1   
    27   18   33 1   
    28   18   34 1   
    29   19   20 1   
    30   19   35 1   
    31   19   36 1   
    32   20   21 1   
    33   20   37 1   
    34   20   38 1   
    35   21   22 1   
    36   21   39 1   
    37   21   40 1   
    38   22   23 1   
    39   22   41 1   
    40   22   42 1   
    41   23   24 1   
    42   23   43 1   
    43   23   44 1   
    44   24   25 1   
    45   24   45 1   
    46   24   46 1   
    47   25   47 1   
    48   25   48 1   
    49   25   49 1   
@<TRIPOS>SUBSTRUCTURE
     1 714         1 TEMP              0 ****  ****    0 ROOT
