@<TRIPOS>MOLECULE
molecule
   44    46     1     0     0
SMALL
bcc


@<TRIPOS>ATOM
      1 C1           0.0000     0.0000     0.0000 ca         1 715      -0.166000
      2 C2           1.3850     0.0000     0.0000 ca         1 715       0.107900
      3 C3           2.0770     0.0000     1.1990 ca         1 715      -0.178300
      4 C4           1.3870     0.0110     2.3960 ca         1 715      -0.107000
      5 C5           0.0030     0.0170     2.3970 ca         1 715       0.113900
      6 C6          -0.6910     0.0110     1.1980 ca         1 715       0.156900
      7 F9          -0.6710     0.0280     3.5690 f          1 715      -0.094900
      8 F10          2.0600    -0.0110    -1.1700 f          1 715      -0.146900
      9 C11          3.5840    -0.0050     1.1970 c3         1 715      -0.051100
     10 C12          4.0890    -1.4490     1.2070 c3         1 715       0.131500
     11 C15          5.6180    -1.4540     1.2060 c3         1 715      -0.191400
     12 C16          6.1150    -2.8760     1.2160 c          1 715       0.662100
     13 N19          7.4390    -3.1270     1.2180 n          1 715      -0.478800
     14 N20          3.5960    -2.1470     0.0140 nz         1 715      -0.815600
     15 O22          5.3240    -3.7960     1.2230 o          1 715      -0.644100
     16 C25          7.9480    -4.5080     1.2270 c3         1 715       0.086000
     17 C26          8.7250    -4.7690    -0.0680 c3         1 715       0.016300
     18 N27          9.6160    -3.6400    -0.3290 na         1 715      -0.303700
     19 C28          9.4980    -2.4050     0.2220 cc         1 715       0.330800
     20 C29          8.4200    -2.0260     1.2030 c3         1 715       0.091700
     21 C39         10.6940    -3.5880    -1.1380 cc         1 715       0.286800
     22 N40         11.1740    -2.3740    -1.0620 nd         1 715      -0.276000
     23 N41         10.4570    -1.6720    -0.2520 nd         1 715      -0.315000
     24 C42         11.2420    -4.7160    -1.9720 c3         1 715       0.626600
     25 F43         12.3660    -4.2740    -2.6760 f          1 715      -0.199967
     26 F44         11.6030    -5.7800    -1.1390 f          1 715      -0.199967
     27 F45         10.2650    -5.1440    -2.8770 f          1 715      -0.199967
     28 F46         -2.0420     0.0170     1.1990 f          1 715      -0.087900
     29 H1          -0.5420    -0.0020    -0.9380 ha         1 715       0.189000
     30 H4           1.9290     0.0130     3.3340 ha         1 715       0.171000
     31 H111         3.9480     0.5110     2.0770 hc         1 715       0.096200
     32 H112         3.9460     0.4980     0.3080 hc         1 715       0.096200
     33 H12          3.7270    -1.9520     2.0960 hx         1 715       0.130700
     34 H151         5.9820    -0.9390     2.0860 hc         1 715       0.106200
     35 H152         5.9800    -0.9520     0.3170 hc         1 715       0.106200
     36 H201         4.1280    -2.9830    -0.1280 hn         1 715       0.462467
     37 H202         2.6310    -2.3830     0.1390 hn         1 715       0.462467
     38 H251         8.6330    -4.6110     2.0590 h1         1 715       0.098700
     39 H252         7.0990    -5.1810     1.2530 h1         1 715       0.098700
     40 H261         9.3340    -5.6540     0.0750 h1         1 715       0.091700
     41 H262         8.0140    -4.8340    -0.8830 h1         1 715       0.091700
     42 H291         8.8630    -1.9460     2.1880 h1         1 715       0.090200
     43 H292         7.9280    -1.1300     0.8440 h1         1 715       0.090200
     44 H203         3.6690    -1.5420    -0.7800 hn         1 715       0.462467
@<TRIPOS>BOND
     1     1     2 ar  
     2     1     6 ar  
     3     1    29 1   
     4     2     3 ar  
     5     2     8 1   
     6     3     4 ar  
     7     3     9 1   
     8     4     5 ar  
     9     4    30 1   
    10     5     6 ar  
    11     5     7 1   
    12     6    28 1   
    13     9    10 1   
    14     9    31 1   
    15     9    32 1   
    16    10    11 1   
    17    10    14 1   
    18    10    33 1   
    19    11    12 1   
    20    11    34 1   
    21    11    35 1   
    22    12    13 1   
    23    12    15 2   
    24    13    16 1   
    25    13    20 1   
    26    14    36 1   
    27    14    37 1   
    28    16    17 1   
    29    16    38 1   
    30    16    39 1   
    31    17    18 1   
    32    17    40 1   
    33    17    41 1   
    34    18    19 1   
    35    18    21 1   
    36    19    20 1   
    37    19    23 2   
    38    20    42 1   
    39    20    43 1   
    40    21    22 2   
    41    21    24 1   
    42    22    23 1   
    43    24    25 1   
    44    24    26 1   
    45    24    27 1   
    46    44    14 1   
@<TRIPOS>SUBSTRUCTURE
     1 715         1 TEMP              0 ****  ****    0 ROOT
