@<TRIPOS>MOLECULE
716
   62    63     1     0     0
SMALL
bcc


@<TRIPOS>ATOM
      1 CX           0.0000     0.0000     0.0000 c          1 716       0.558600
      2 CY           1.5070     0.0000     0.0000 c3         1 716      -0.099300
      3 CZ          -0.7320     0.3290    -1.2240 cc         1 716       0.360900
      4 OX          -0.6070    -0.2730     1.0150 o          1 716      -0.535100
      5 N2           1.9960     0.0000     1.3810 ns         1 716      -0.210900
      6 C3           2.0170    -1.2480    -0.7220 c3         1 716      -0.008400
      7 C4           3.5430    -1.1860    -0.8320 c3         1 716      -0.033400
      8 C5           4.0520    -2.4350    -1.5550 c3         1 716       0.162800
      9 N6           5.5120    -2.3760    -1.6600 nu         1 716      -0.485200
     10 C7           6.1990    -3.3970    -2.2750 c2         1 716       0.243100
     11 N8           7.5690    -3.3400    -2.3740 nz         1 716       0.198400
     12 N9           5.5510    -4.4160    -2.7640 n2         1 716      -0.623100
     13 N10         -0.2630     0.6580    -2.4240 nd         1 716      -0.548000
     14 C11         -1.0900     0.9140    -3.3990 cd         1 716       0.297200
     15 C12         -2.4370     0.8540    -3.1800 cc         1 716      -0.039400
     16 S13         -2.4950     0.4040    -1.5030 ss         1 716      -0.247300
     17 N14          3.0960     2.4900     3.8350 ns         1 716      -0.145900
     18 C15          2.5970     1.1580     3.4830 c3         1 716      -0.063300
     19 C16          2.1240     1.1620     2.0510 c          1 716       0.595100
     20 O17          1.8600     2.2110     1.5020 o          1 716      -0.612100
     21 C18          1.4310     0.7910     4.4030 c3         1 716      -0.061700
     22 C19          1.9350     0.6830     5.8440 c3         1 716      -0.004100
     23 C20          0.3540     1.8740     4.3190 c3         1 716      -0.004100
     24 C22          4.5120     3.9860     5.1820 c          1 716       0.574700
     25 O23          4.4040     1.6530     5.4200 o          1 716      -0.647100
     26 O24          4.1880     4.9510     4.5200 o          1 716      -0.541100
     27 C25          5.4060     4.1550     6.3410 ca         1 716      -0.186600
     28 C26          5.7810     5.4360     6.7610 ca         1 716      -0.033000
     29 C27          6.6170     5.5860     7.8450 ca         1 716      -0.113000
     30 C28          7.0880     4.4720     8.5210 ca         1 716      -0.057000
     31 C29          6.7220     3.2000     8.1120 ca         1 716      -0.057600
     32 C30          5.8810     3.0340     7.0310 ca         1 716      -0.075000
     33 Cl31         7.3180     1.8110     8.9680 cl         1 716      -0.020400
     34 HY           1.8680     0.8850    -0.5100 h1         1 716       0.087700
     35 HN2          1.5190    -0.8030     1.7410 hn         1 716       0.193500
     36 H31          1.5850    -1.2930    -1.7140 hc         1 716       0.033700
     37 H32          1.7310    -2.1310    -0.1630 hc         1 716       0.033700
     38 H41          3.9750    -1.1420     0.1600 hc         1 716       0.034200
     39 H42          3.8290    -0.3040    -1.3910 hc         1 716       0.034200
     40 H51          3.6200    -2.4800    -2.5470 h1         1 716       0.033200
     41 H52          3.7660    -3.3180    -0.9960 h1         1 716       0.033200
     42 HN6          6.0080    -1.5860    -1.2980 hn         1 716       0.308800
     43 HN81         7.9750    -3.4980    -1.4730 hn         1 716       0.223133
     44 HN82         7.8420    -2.4380    -2.7100 hn         1 716       0.223133
     45 HN9          4.5530    -4.4580    -2.6930 hn         1 716       0.385400
     46 H11         -0.7100     1.1790    -4.3780 h4         1 716       0.001100
     47 H12         -3.2530     1.0370    -3.8690 h4         1 716       0.180000
     48 H14          2.8020     3.2900     3.3100 hn         1 716       0.218500
     49 H15          3.3920     0.4320     3.5990 h1         1 716       0.062700
     50 H18          1.3010    -0.2610     4.1820 hc         1 716       0.032700
     51 H191         2.1480     1.6730     6.2280 hc         1 716       0.016700
     52 H192         2.8370     0.0850     5.8670 hc         1 716       0.016700
     53 H193         1.1750     0.2140     6.4580 hc         1 716       0.016700
     54 H201         0.7530     2.8110     4.6890 hc         1 716       0.016700
     55 H202        -0.4990     1.5830     4.9210 hc         1 716       0.016700
     56 H203         0.0430     1.9950     3.2890 hc         1 716       0.016700
     57 H26          5.4140     6.3080     6.2340 ha         1 716       0.122000
     58 H27          6.9070     6.5770     8.1710 ha         1 716       0.114000
     59 H28          7.7470     4.5960     9.3720 ha         1 716       0.116000
     60 H30          5.5960     2.0390     6.7130 ha         1 716       0.177000
     61 H83          7.8860    -4.0380    -3.0170 hn         1 716       0.223133
     62 C21          4.0020     2.6300     4.8230 c          1 716       0.489100
@<TRIPOS>BOND
     1     1     2 1   
     2     1     3 1   
     3     1     4 2   
     4     2     5 1   
     5     2     6 1   
     6     2    34 1   
     7     3    13 2   
     8     3    16 1   
     9     5    19 1   
    10     5    35 1   
    11     6     7 1   
    12     6    36 1   
    13     6    37 1   
    14     7     8 1   
    15     7    38 1   
    16     7    39 1   
    17     8     9 1   
    18     8    40 1   
    19     8    41 1   
    20     9    10 1   
    21     9    42 1   
    22    10    11 1   
    23    10    12 2   
    24    11    43 1   
    25    11    44 1   
    26    11    61 1   
    27    12    45 1   
    28    13    14 1   
    29    14    15 2   
    30    14    46 1   
    31    15    16 1   
    32    15    47 1   
    33    17    18 1   
    34    17    48 1   
    35    17    62 1   
    36    18    19 1   
    37    18    21 1   
    38    18    49 1   
    39    19    20 2   
    40    21    22 1   
    41    21    23 1   
    42    21    50 1   
    43    22    51 1   
    44    22    52 1   
    45    22    53 1   
    46    23    54 1   
    47    23    55 1   
    48    23    56 1   
    49    24    26 2   
    50    24    27 1   
    51    24    62 1   
    52    25    62 2   
    53    27    28 ar  
    54    27    32 ar  
    55    28    29 ar  
    56    28    57 1   
    57    29    30 ar  
    58    29    58 1   
    59    30    31 ar  
    60    30    59 1   
    61    31    32 ar  
    62    31    33 1   
    63    32    60 1   
@<TRIPOS>SUBSTRUCTURE
     1 716         1 TEMP              0 ****  ****    0 ROOT
