@<TRIPOS>MOLECULE
molecule
   16    17     1     0     0
SMALL
bcc


@<TRIPOS>ATOM
      1 C1           0.0000     0.0000     0.0000 cc         1 717       0.341600
      2 N2           1.3410     0.0000     0.0000 nc         1 717      -0.662000
      3 C3           1.7680     0.0000     1.2410 cd         1 717       0.476900
      4 N4           0.7030     0.0000     2.0890 na         1 717      -0.141900
      5 C5          -0.4230     0.0010     1.2740 cd         1 717      -0.231600
      6 C6           1.0150     0.0000     3.4300 cd         1 717      -0.094300
      7 C7           2.2870     0.0000     3.7860 cc         1 717      -0.081100
      8 S8           3.2070     0.0010     2.2710 ss         1 717      -0.178300
      9 C9          -0.8820     0.0060    -1.2230 c3         1 717       0.130100
     10 O10         -2.2530     0.0120    -0.8210 oh         1 717      -0.618800
     11 H5          -1.4540     0.0020     1.6070 h4         1 717       0.193000
     12 H6           0.2320     0.0000     4.1780 h4         1 717       0.174000
     13 H7           2.6740     0.2530     4.7660 h4         1 717       0.199000
     14 H9          -0.6750     0.8900    -1.8130 h1         1 717       0.041700
     15 H9A         -0.6830    -0.8790    -1.8160 h1         1 717       0.041700
     16 HO10        -2.8040     0.0150    -1.5860 ho         1 717       0.411000
@<TRIPOS>BOND
     1     2     1 1
     2     1     5 2
     3     1     9 1
     4     3     2 2
     5     8     3 1
     6     3     4 1
     7     6     4 1
     8     4     5 1
     9     5    11 1
    10     7     6 2
    11     6    12 1
    12     8     7 1
    13     7    13 1
    14     9    10 1
    15     9    14 1
    16     9    15 1
    17    10    16 1
@<TRIPOS>SUBSTRUCTURE
     1 717         1 TEMP              0 ****  ****    0 ROOT
