@<TRIPOS>MOLECULE
717
   16    17     1     0     0
SMALL
bcc


@<TRIPOS>ATOM
      1 C1         -0.0280    0.0080    0.0180 cc        1 717      0.307600
      2 N2          1.3760    0.0160   -0.0100 nc        1 717     -0.630000
      3 C3          1.7480    0.0290    1.2870 cd        1 717      0.389900
      4 N4          0.5970    0.0300    2.1600 na        1 717     -0.146900
      5 C5         -0.5230    0.0160    1.3430 cd        1 717     -0.202600
      6 C6          0.9570    0.0430    3.5020 cc        1 717     -0.080300
      7 C7          2.3200    0.0530    3.6620 cd        1 717     -0.164100
      8 S8          3.1830    0.0460    2.1940 ss        1 717     -0.038300
      9 C9         -0.8490   -0.0080   -1.2200 c3        1 717      0.112100
     10 O10        -2.2190   -0.0110   -0.8370 oh        1 717     -0.606800
     11 H5         -1.5480    0.0130    1.7110 h4        1 717      0.199000
     12 H6          0.1820    0.0450    4.2760 h4        1 717      0.187000
     13 H7          2.8320    0.0650    4.6230 h4        1 717      0.185000
     14 H9         -0.6210   -0.9290   -1.8250 h1        1 717      0.042700
     15 H9A        -0.6290    0.9040   -1.8430 h1        1 717      0.042700
     16 HO10       -2.7240   -0.0190   -1.6580 ho        1 717      0.405000
@<TRIPOS>BOND
     1    1    2 1   
     2    1    5 2   
     3    1    9 1   
     4    2    3 2   
     5    3    4 1   
     6    3    8 1   
     7    4    5 1   
     8    4    6 1   
     9    5   11 1   
    10    6    7 2   
    11    6   12 1   
    12    7    8 1   
    13    7   13 1   
    14    9   10 1   
    15    9   14 1   
    16    9   15 1   
    17   10   16 1   
@<TRIPOS>SUBSTRUCTURE
     1 717         1 TEMP              0 ****  ****    0 ROOT
