@<TRIPOS>MOLECULE
molecule
   22    23     1     0     0
SMALL
bcc


@<TRIPOS>ATOM
      1 C4           0.0000     0.0000     0.0000 ca         1 718      -0.186600
      2 C5           1.4000     0.0000     0.0000 ca         1 718      -0.054000
      3 C6           2.0830     0.0000     1.1950 ca         1 718      -0.172000
      4 C7          -2.2080     0.0010     1.2430 c3         1 718      -0.043100
      5 C8          -2.7940     0.5310    -0.0590 c3         1 718      -0.077400
      6 C10         -0.7280     0.0040    -1.2800 c          1 718       0.580700
      7 C9          -2.2190    -0.2600    -1.2420 c3         1 718      -0.176400
      8 C3          -0.7040     0.0030     1.2080 ca         1 718      -0.022300
      9 C2          -0.0120     0.0110     2.3900 ca         1 718      -0.173000
     10 C1           1.3770     0.0010     2.3930 ca         1 718       0.136100
     11 O1           2.0490     0.0110     3.5720 oh         1 718      -0.522100
     12 O11         -0.1540     0.2110    -2.3290 o          1 718      -0.526100
     13 H1           1.9440    -0.0010    -0.9370 ha         1 718       0.156000
     14 H2           3.1660    -0.0080     1.2020 ha         1 718       0.146000
     15 H3          -2.5430     0.6270     2.0610 hc         1 718       0.057200
     16 H4          -2.5570    -1.0120     1.4000 hc         1 718       0.057200
     17 H5          -3.8680     0.3940    -0.0390 hc         1 718       0.054200
     18 H6          -2.5160     1.5720    -0.1680 hc         1 718       0.054200
     19 H7          -2.6670     0.0980    -2.1610 hc         1 718       0.073200
     20 H8          -2.3890    -1.3180    -1.0800 hc         1 718       0.073200
     21 H9          -0.5520     0.0120     3.3300 ha         1 718       0.143000
     22 H10          2.1710    -0.8740     3.8720 ho         1 718       0.424000
@<TRIPOS>BOND
     1     4     8 1
     2     4     5 1
     3     9     8 ar
     4     9    10 ar
     5    11    10 1
     6     8     1 ar
     7    10     3 ar
     8     5     7 1
     9     7     6 1
    10     1     6 1
    11     1     2 ar
    12     3     2 ar
    13     6    12 2
    14     2    13 1
    15     3    14 1
    16     4    15 1
    17     4    16 1
    18     5    17 1
    19     5    18 1
    20     7    19 1
    21     7    20 1
    22     9    21 1
    23    11    22 1
@<TRIPOS>SUBSTRUCTURE
     1 718         1 TEMP              0 ****  ****    0 ROOT
