@<TRIPOS>MOLECULE
molecule
   68    72     1     0     0
SMALL
bcc


@<TRIPOS>ATOM
      1 N1           0.0000     0.0000     0.0000 na         1 719      -0.259000
      2 C2          -0.8670     0.0000    -1.1810 c3         1 719       0.252800
      3 C3           1.3720     0.0000     0.0000 ca         1 719       0.475800
      4 C4           1.7600     0.0000     1.3490 ca         1 719      -0.209200
      5 N5           0.6260    -0.0000     2.0910 nc         1 719      -0.586100
      6 C6          -1.0740    -1.4430    -1.6780 c3         1 719       0.085100
      7 C7          -6.9820     0.0540     4.2880 ca         1 719      -0.154600
      8 C8          -0.4090     0.0050     1.3010 cd         1 719       0.420700
      9 O9          -2.1610     0.5250    -0.8370 os         1 719      -0.417600
     10 C10         -2.6090    -1.6460    -1.6260 c3         1 719       0.100100
     11 C11         -8.1310     0.0600     5.0880 ca         1 719       0.160100
     12 C12         -5.7490    -0.2820     4.8480 ca         1 719      -0.094000
     13 C13         -3.1300    -0.1850    -1.6380 c3         1 719       0.167300
     14 C14         -7.0750     0.3980     2.8550 c          1 719       0.672700
     15 N15          2.3100     0.0010    -0.9420 nb         1 719      -0.798000
     16 C16         -5.6670    -0.6100     6.1950 cp         1 719      -0.041000
     17 C17         -8.0390    -0.2710     6.4380 ca         1 719       0.053100
     18 C18         -6.8160    -0.6030     6.9880 ca         1 719      -0.120000
     19 C19          3.1330     0.0000     1.6460 ca         1 719       0.788200
     20 N20          3.9980    -0.0000     0.6370 nb         1 719      -0.838000
     21 C21          3.5860     0.0010    -0.6180 ca         1 719       0.743900
     22 C22         -4.3570    -0.9680     6.7920 cp         1 719      -0.053000
     23 C23         -4.4970    -0.1040    -1.0120 c2         1 719      -0.168200
     24 O24         -8.1520     0.6860     2.3690 o          1 719      -0.579100
     25 O25         -0.5980    -1.5840    -3.0180 oh         1 719      -0.566800
     26 N26         -5.9690     0.3930     2.0880 ns         1 719      -0.586900
     27 C27         -4.6930     0.6520     0.0390 c2         1 719      -0.180200
     28 C28         -4.2710    -1.2980     8.1430 ca         1 719      -0.095500
     29 C29         -3.2090    -0.9810     6.0020 ca         1 719      -0.095500
     30 O30         -3.0690    -2.3610    -2.7740 oh         1 719      -0.570800
     31 O31         -9.3330     0.3870     4.5490 oh         1 719      -0.480100
     32 O32         -9.1550    -0.2650     7.2160 oh         1 719      -0.516100
     33 C33         -1.9110    -1.6370     7.9070 ca         1 719       0.137900
     34 C34         -3.0500    -1.6300     8.6940 ca         1 719      -0.162500
     35 C35         -1.9920    -1.3150     6.5610 ca         1 719      -0.162500
     36 F36         -0.7180    -1.9620     8.4510 f          1 719      -0.137900
     37 C37         -6.0620     0.7330     0.6660 c3         1 719       0.147200
     38 N38          3.5760    -0.0010     2.9580 nu         1 719      -0.881900
     39 C39          5.0120    -0.0020     3.2460 c3         1 719       0.236800
     40 CA           5.2270    -0.0010     4.7610 c3         1 719       0.118400
     41 OB           4.7310    -1.2210     5.3130 oh         1 719      -0.608800
     42 H2          -0.4260     0.6000    -1.9690 h2         1 719       0.114700
     43 H6          -0.5790    -2.1440    -1.0180 h1         1 719       0.061700
     44 H8          -1.4410     0.0140     1.6280 h5         1 719       0.080800
     45 H10         -2.8980    -2.1470    -0.7100 h1         1 719       0.054700
     46 H12         -4.8570    -0.2870     4.2330 ha         1 719       0.134000
     47 H13         -3.1430     0.2030    -2.6490 h1         1 719       0.093700
     48 H18         -6.7480    -0.8600     8.0380 ha         1 719       0.147000
     49 H21          4.3260     0.0000    -1.4090 h5         1 719       0.061100
     50 H23         -5.3190    -0.6720    -1.4310 ha         1 719       0.146000
     51 HO25        -0.0680    -2.3610    -3.0830 ho         1 719       0.414000
     52 HN26        -5.0790     0.1770     2.4930 hn         1 719       0.311500
     53 H27         -3.8710     1.2200     0.4580 ha         1 719       0.147000
     54 H28         -5.1610    -1.2930     8.7600 ha         1 719       0.137000
     55 H29         -3.2710    -0.7290     4.9500 ha         1 719       0.137000
     56 HO30        -3.4060    -3.2000    -2.5080 ho         1 719       0.405000
     57 HO31        -9.9060    -0.3610     4.5830 ho         1 719       0.434000
     58 HO32        -9.1480     0.4980     7.7690 ho         1 719       0.428000
     59 H34         -2.9830    -1.8840     9.7450 ha         1 719       0.151000
     60 H35         -1.0990    -1.3230     5.9480 ha         1 719       0.151000
     61 H37         -6.7280     0.0370     0.1710 h1         1 719       0.062200
     62 H37A        -6.4490     1.7400     0.5600 h1         1 719       0.062200
     63 HN38         2.9150     0.0210     3.7090 hn         1 719       0.471800
     64 H39          5.4660    -0.8870     2.8180 h1         1 719       0.061200
     65 H39A         5.4670     0.8820     2.8160 h1         1 719       0.061200
     66 HA           4.6980     0.8360     5.2010 h1         1 719       0.033700
     67 HAA          6.2850     0.0880     4.9750 h1         1 719       0.033700
     68 HOB          5.1910    -1.4160     6.1120 ho         1 719       0.406000
@<TRIPOS>BOND
     1     1     2 1   
     2     1     3 1   
     3     1     8 1   
     4     2     6 1   
     5     2     9 1   
     6     3     4 ar  
     7     3    15 ar  
     8     4     5 1   
     9     4    19 ar  
    10     5     8 2   
    11     6    10 1   
    12     6    25 1   
    13     7    11 ar  
    14     7    12 ar  
    15     7    14 1   
    16     9    13 1   
    17    10    13 1   
    18    10    30 1   
    19    11    17 ar  
    20    11    31 1   
    21    12    16 ar  
    22    13    23 1   
    23    14    24 2   
    24    14    26 1   
    25    15    21 ar  
    26    16    18 ar  
    27    16    22 1   
    28    17    18 ar  
    29    17    32 1   
    30    19    20 ar  
    31    19    38 1   
    32    20    21 ar  
    33    22    28 ar  
    34    22    29 ar  
    35    23    27 2   
    36    26    37 1   
    37    27    37 1   
    38    28    34 ar  
    39    29    35 ar  
    40    33    34 ar  
    41    33    35 ar  
    42    33    36 1   
    43    38    39 1   
    44    39    40 1   
    45    40    41 1   
    46     2    42 1   
    47     6    43 1   
    48     8    44 1   
    49    10    45 1   
    50    12    46 1   
    51    13    47 1   
    52    18    48 1   
    53    21    49 1   
    54    23    50 1   
    55    25    51 1   
    56    26    52 1   
    57    27    53 1   
    58    28    54 1   
    59    29    55 1   
    60    30    56 1   
    61    31    57 1   
    62    32    58 1   
    63    34    59 1   
    64    35    60 1   
    65    37    61 1   
    66    37    62 1   
    67    38    63 1   
    68    39    64 1   
    69    39    65 1   
    70    40    66 1   
    71    40    67 1   
    72    41    68 1   
@<TRIPOS>SUBSTRUCTURE
     1 719         1 TEMP              0 ****  ****    0 ROOT
