@<TRIPOS>MOLECULE
719
   68    74     1     0     0
SMALL
bcc


@<TRIPOS>ATOM
      1 N1           0.0000     0.0000     0.0000 na         1 719       0.279000
      2 C2          -0.8670     0.0000    -1.1810 c3         1 719       0.058000
      3 C3           1.3720     0.0000     0.0000 c2         1 719      -0.119000
      4 C4           1.7600     0.0000     1.3490 c2         1 719      -0.250000
      5 N5           0.6260    -0.0000     2.0910 n2         1 719      -0.068000
      6 C6          -1.0740    -1.4430    -1.6780 c3         1 719       0.010000
      7 C7          -6.9820     0.0540     4.2880 ca         1 719      -0.148000
      8 C8          -0.4090     0.0050     1.3010 c2         1 719      -0.209000
      9 O9          -2.1610     0.5250    -0.8370 os         1 719      -0.250000
     10 C10         -2.6090    -1.6460    -1.6260 c3         1 719       0.003000
     11 C11         -8.1310     0.0600     5.0880 ca         1 719       0.130000
     12 C12         -5.7490    -0.2820     4.8480 ca         1 719      -0.081000
     13 C13         -3.1300    -0.1850    -1.6380 DU         1 719       0.129000
     14 C14         -7.0750     0.3980     2.8550 c2         1 719       0.273000
     15 N15          2.3100     0.0010    -0.9420 n2         1 719      -0.163000
     16 C16         -5.6670    -0.6100     6.1950 cp         1 719      -0.036000
     17 C17         -8.0390    -0.2710     6.4380 ca         1 719       0.016000
     18 C18         -6.8160    -0.6030     6.9880 ca         1 719      -0.113000
     19 C19          3.1330     0.0000     1.6460 c2         1 719       0.083000
     20 N20          3.9980    -0.0000     0.6370 n2         1 719      -0.223000
     21 C21          3.5860     0.0010    -0.6180 c2         1 719       0.033000
     22 C22         -4.3570    -0.9680     6.7920 cq         1 719      -0.043000
     23 C23         -4.4970    -0.1040    -1.0120 c2         1 719      -0.135000
     24 O24         -8.1520     0.6860     2.3690 o          1 719      -0.393000
     25 O25         -0.5980    -1.5840    -3.0180 oh         1 719      -0.275000
     26 N26         -5.9690     0.3930     2.0880 ns         1 719      -0.066000
     27 C27         -4.6930     0.6520     0.0390 c2         1 719      -0.119000
     28 C28         -4.2710    -1.2980     8.1430 ca         1 719      -0.075500
     29 C29         -3.2090    -0.9810     6.0020 ca         1 719      -0.075500
     30 O30         -3.0690    -2.3610    -2.7740 oh         1 719      -0.276000
     31 O31         -9.3330     0.3870     4.5490 oh         1 719      -0.201000
     32 O32         -9.1550    -0.2650     7.2160 oh         1 719      -0.233000
     33 C33         -1.9110    -1.6370     7.9070 ca         1 719       0.070000
     34 C34         -3.0500    -1.6300     8.6940 ca         1 719      -0.126000
     35 C35         -1.9920    -1.3150     6.5610 ca         1 719      -0.126000
     36 F36         -0.7180    -1.9620     8.4510 f          1 719      -0.093000
     37 C37         -6.0620     0.7330     0.6660 DU         1 719       0.101000
     38 N38          3.5760    -0.0010     2.9580 nu         1 719       0.099000
     39 C39          5.0120    -0.0020     3.2460 c3         1 719      -0.089000
     40 CA           5.2270    -0.0010     4.7610 c3         1 719       0.060000
     41 OB           4.7310    -1.2210     5.3130 oh         1 719      -0.322000
     42 H2          -0.4260     0.6000    -1.9690 h2         1 719       0.111000
     43 H6          -0.5790    -2.1440    -1.0180 h1         1 719       0.062000
     44 H8          -1.4410     0.0130     1.6280 h5         1 719       0.168000
     45 H10         -2.8980    -2.1470    -0.7100 h1         1 719       0.068000
     46 H12         -4.8570    -0.2880     4.2330 ha         1 719       0.116000
     47 H13         -3.1430     0.2030    -2.6490 ha         1 719       0.083000
     48 H18         -6.7480    -0.8600     8.0380 ha         1 719       0.122000
     49 H21          4.3260     0.0000    -1.4090 h5         1 719       0.132000
     50 H23         -4.0760     0.6540    -1.6600 DU         1 719       0.059000
     51 HO25        -0.0680    -2.3610    -3.0830 ho         1 719       0.198000
     52 HN26        -5.0800     0.1730     2.4920 hn         1 719       0.108000
     53 H27         -5.5130     1.2400    -0.3560 DU         1 719       0.021000
     54 H28         -5.1610    -1.2930     8.7600 ha         1 719       0.113000
     55 H29         -3.2710    -0.7290     4.9500 ha         1 719       0.113000
     56 HO30        -3.4700    -3.1690    -2.5020 ho         1 719       0.189000
     57 HO31        -9.9070    -0.3600     4.5860 ho         1 719       0.199000
     58 HO32        -9.3570    -1.1470     7.4820 ho         1 719       0.196000
     59 H34         -2.9830    -1.8840     9.7450 ha         1 719       0.122000
     60 H35         -1.0990    -1.3230     5.9480 ha         1 719       0.122000
     61 H37         -6.7280     0.0370     0.1700 ha         1 719       0.070500
     62 H37A        -6.4480     1.7400     0.5600 ha         1 719       0.070500
     63 HN38         2.9150    -0.0290     3.7090 hn         1 719       0.111000
     64 H39          5.4660    -0.8870     2.8180 h1         1 719       0.072000
     65 H39A         5.4670     0.8820     2.8160 h1         1 719       0.072000
     66 HA           6.2850     0.0890     4.9760 h1         1 719       0.034500
     67 HAA          4.6980     0.8360     5.2010 h1         1 719       0.034500
     68 HOB          5.1910    -1.4150     6.1120 ho         1 719       0.195000
@<TRIPOS>BOND
     1     1     2 1   
     2     1     3 1   
     3     1     8 1   
     4     2     6 1   
     5     2     9 1   
     6     2    42 1   
     7     3     4 1   
     8     3    15 1   
     9     4     5 1   
    10     4    19 1   
    11     5     8 1   
    12     6    10 1   
    13     6    25 1   
    14     6    43 1   
    15     7    11 1   
    16     7    12 1   
    17     7    14 1   
    18     8    44 1   
    19     9    13 1   
    20    10    13 1   
    21    10    30 1   
    22    10    45 1   
    23    11    17 1   
    24    11    31 1   
    25    12    16 1   
    26    12    46 1   
    27    13    23 1   
    28    13    47 1   
    29    13    50 1   
    30    14    24 1   
    31    14    26 1   
    32    15    21 1   
    33    16    18 1   
    34    16    22 1   
    35    17    18 1   
    36    17    32 1   
    37    18    48 1   
    38    19    20 1   
    39    19    38 1   
    40    20    21 1   
    41    21    49 1   
    42    22    28 1   
    43    22    29 1   
    44    23    27 1   
    45    23    50 1   
    46    25    51 1   
    47    26    37 1   
    48    26    52 1   
    49    27    37 1   
    50    27    53 1   
    51    28    34 1   
    52    28    54 1   
    53    29    35 1   
    54    29    55 1   
    55    30    56 1   
    56    31    57 1   
    57    32    58 1   
    58    33    34 1   
    59    33    35 1   
    60    33    36 1   
    61    34    59 1   
    62    35    60 1   
    63    37    53 1   
    64    37    61 1   
    65    37    62 1   
    66    38    39 1   
    67    38    63 1   
    68    39    40 1   
    69    39    64 1   
    70    39    65 1   
    71    40    41 1   
    72    40    66 1   
    73    40    67 1   
    74    41    68 1   
@<TRIPOS>SUBSTRUCTURE
     1 719         1 TEMP              0 ****  ****    0 ROOT
