@<TRIPOS>MOLECULE
molecule
   12    12     1     0     0
SMALL
bcc


@<TRIPOS>ATOM
      1 C5           0.0000     0.0000     0.0000 ca         1 71A      -0.241300
      2 C4           1.3810     0.0000     0.0000 ca         1 71A       0.409200
      3 C6          -0.6760     0.0050     1.2090 ca         1 71A      -0.119000
      4 C2           1.4540     0.0000     2.3020 ca         1 71A       0.397200
      5 N3           2.0590     0.0000     1.1320 nb         1 71A      -0.677000
      6 C1           0.0690     0.0110     2.3830 ca         1 71A      -0.019200
      7 H1          -0.5480    -0.0020    -0.9340 ha         1 71A       0.141000
      8 H2           1.9150    -0.0020    -0.9420 h4         1 71A       0.025100
      9 H3          -1.7590     0.0100     1.2390 ha         1 71A       0.147000
     10 H4           2.0440     0.0020     3.2100 h4         1 71A       0.032100
     11 H5          -0.6700     0.9070     3.8810 ho         1 71A       0.421000
     12 O1          -0.5510     0.0170     3.5930 oh         1 71A      -0.516100
@<TRIPOS>BOND
     1    12     6 1
     2     6     3 ar
     3     6     4 ar
     4     3     1 ar
     5     4     5 ar
     6     1     2 ar
     7     5     2 ar
     8     1     7 1
     9     2     8 1
    10     3     9 1
    11     4    10 1
    12    12    11 1
@<TRIPOS>SUBSTRUCTURE
     1 71A         1 TEMP              0 ****  ****    0 ROOT
