@<TRIPOS>MOLECULE
molecule
   18    18     1     0     0
SMALL
bcc


@<TRIPOS>ATOM
      1 C1           0.0000     0.0000     0.0000 c3         1 71B       0.128700
      2 O1           1.4290     0.0000     0.0000 os         1 71B      -0.318900
      3 C2           2.0470     0.0000     1.2130 ca         1 71B       0.097100
      4 C3           3.4340     0.0060     1.2850 ca         1 71B       0.110900
      5 C4           4.0610     0.0070     2.5170 ca         1 71B      -0.153000
      6 C5           3.3040     0.0020     3.6810 ca         1 71B       0.150600
      7 C6           1.9170    -0.0040     3.6070 ca         1 71B      -0.121000
      8 C7           1.2920     0.0000     2.3750 ca         1 71B      -0.195000
      9 F8           4.1700     0.0100     0.1530 f          1 71B      -0.131900
     10 N9           3.9380     0.0020     4.9280 nv         1 71B      -0.987200
     11 H1          -0.3610     0.0010    -1.0210 h1         1 71B       0.042033
     12 H2          -0.3610    -0.8850     0.5100 h1         1 71B       0.042033
     13 H3          -0.3610     0.8840     0.5110 h1         1 71B       0.042033
     14 H4           5.1430     0.0110     2.5740 ha         1 71B       0.154000
     15 H5           1.3260    -0.0060     4.5150 ha         1 71B       0.140000
     16 H6           0.2100    -0.0040     2.3170 ha         1 71B       0.141000
     17 H7           4.1660     0.8690     5.3740 hn         1 71B       0.428800
     18 H8           4.1720    -0.8650     5.3710 hn         1 71B       0.428800
@<TRIPOS>BOND
     1     1     2 1   
     2     9     4 1   
     3     5     4 ar  
     4     5     6 ar  
     5     4     3 ar  
     6    10     6 1   
     7     6     7 ar  
     8     3     2 1   
     9     3     8 ar  
    10     7     8 ar  
    11     1    11 1   
    12     1    12 1   
    13     1    13 1   
    14     5    14 1   
    15     7    15 1   
    16     8    16 1   
    17    10    17 1   
    18    10    18 1   
@<TRIPOS>SUBSTRUCTURE
     1 71B         1 TEMP              0 ****  ****    0 ROOT
