@<TRIPOS>MOLECULE
molecule
   66    70     1     0     0
SMALL
bcc


@<TRIPOS>ATOM
      1 C10          0.0000     0.0000     0.0000 ca         1 71C      -0.173600
      2 C11          1.3920     0.0000     0.0000 ca         1 71C      -0.162000
      3 C19          0.3210     2.1320    -1.8230 c3         1 71C       0.144300
      4 C20         -0.3800     3.1920    -1.0130 ca         1 71C      -0.070300
      5 C26         -2.8160     7.2320    -0.7610 ca         1 71C       0.144100
      6 C28         -2.4980     9.1900     0.5840 ca         1 71C      -0.126000
      7 C31         -4.1840     7.3080    -0.5440 ca         1 71C      -0.142500
      8 C32         -1.0230     4.2340    -1.6510 ca         1 71C      -0.159000
      9 C33         -1.4250     1.1020    -3.3500 c3         1 71C       0.183000
     10 C34         -1.0170    -0.0450    -4.2720 c3         1 71C      -0.098400
     11 C35         -2.0130    -0.1050    -5.4370 c3         1 71C      -0.081400
     12 C36         -3.3560    -0.5890    -4.8990 c3         1 71C      -0.024100
     13 O01          1.4550     0.1300     4.8690 o          1 71C      -0.846300
     14 C02          2.1220     0.0030     3.7060 c          1 71C       0.879200
     15 O03          3.3310    -0.1110     3.7100 o          1 71C      -0.846300
     16 C04          1.3830     0.0010     2.4240 ca         1 71C      -0.107600
     17 C05         -0.0090     0.0020     2.4230 ca         1 71C      -0.083000
     18 C06         -0.7040     0.0010     1.2160 ca         1 71C      -0.136600
     19 C07         -2.1850     0.0010     1.2160 c          1 71C       0.884200
     20 O08         -2.8590     0.1030     2.3770 o          1 71C      -0.862300
     21 O09         -2.7910    -0.0890     0.1680 o          1 71C      -0.862300
     22 C12          2.0870     0.0000     1.2060 ca         1 71C      -0.082600
     23 C13          3.5670    -0.0000     1.2070 c          1 71C       0.912200
     24 O14          4.1750     0.8640     1.8060 o          1 71C      -0.860300
     25 O15          4.2410    -0.9600     0.5430 o          1 71C      -0.860300
     26 C16         -0.7400     0.0060    -1.2840 c          1 71C       0.710700
     27 O17         -1.4570    -0.9310    -1.5760 o          1 71C      -0.575100
     28 N18         -0.6180     1.0490    -2.1280 n          1 71C      -0.502800
     29 C21         -0.3830     3.1180     0.3670 ca         1 71C      -0.083000
     30 C22         -1.0240     4.0890     1.1130 ca         1 71C      -0.079000
     31 C23         -1.6660     5.1370     0.4800 ca         1 71C      -0.221000
     32 C24         -1.6740     5.2070    -0.9050 ca         1 71C       0.082100
     33 O25         -2.3040     6.2360    -1.5310 os         1 71C      -0.271200
     34 C27         -1.9730     8.1780    -0.1970 ca         1 71C      -0.142500
     35 C29         -3.8620     9.2590     0.8050 ca         1 71C      -0.157000
     36 C30         -4.7030     8.3200     0.2390 ca         1 71C      -0.126000
     37 C37         -3.7710     0.2230    -3.7000 ca         1 71C      -0.071300
     38 C38         -5.1050     0.1740    -3.3150 ca         1 71C      -0.157000
     39 C39         -5.5460     0.8930    -2.2240 ca         1 71C      -0.139000
     40 C40         -4.6540     1.6680    -1.5050 ca         1 71C      -0.095000
     41 C41         -3.3300     1.7170    -1.8850 ca         1 71C      -0.039000
     42 C42         -2.8840     0.9960    -2.9860 ca         1 71C      -0.059300
     43 H1           1.9340    -0.0010    -0.9380 ha         1 71C       0.105000
     44 H2           1.1560     1.7370    -1.2550 h1         1 71C       0.064700
     45 H3           0.6850     2.5650    -2.7470 h1         1 71C       0.064700
     46 H4          -1.8400     9.9280     1.0270 ha         1 71C       0.118000
     47 H5          -4.8450     6.5720    -0.9870 ha         1 71C       0.147500
     48 H6          -1.0280     4.2870    -2.7340 ha         1 71C       0.119000
     49 H7          -0.0190     0.1340    -4.6550 hc         1 71C       0.062700
     50 H8          -1.6520    -0.8130    -6.1730 hc         1 71C       0.018700
     51 H9          -3.2700    -1.6300    -4.6110 hc         1 71C       0.030700
     52 H11         -0.5510     0.0020     3.3610 ha         1 71C       0.171000
     53 H14          0.1190     2.2980     0.8660 ha         1 71C       0.207000
     54 H15         -1.0210     4.0310     2.1950 ha         1 71C       0.152000
     55 H16         -2.1710     5.8960     1.0640 ha         1 71C       0.118000
     56 H17         -0.9050     8.1230    -0.3670 ha         1 71C       0.147500
     57 H18         -4.2710    10.0530     1.4180 ha         1 71C       0.111000
     58 H19         -5.7710     8.3780     0.4110 ha         1 71C       0.118000
     59 H20         -5.8040    -0.4320    -3.8780 ha         1 71C       0.089000
     60 H21         -6.5880     0.8500    -1.9300 ha         1 71C       0.094000
     61 H22         -4.9950     2.2340    -0.6470 ha         1 71C       0.126000
     62 H23         -2.6310     2.3240    -1.3220 ha         1 71C       0.156000
     63 H24         -1.2530     2.0440    -3.8560 h1         1 71C       0.029700
     64 H25         -1.0420    -0.9790    -3.7240 hc         1 71C       0.062700
     65 H26         -2.1350     0.8900    -5.8480 hc         1 71C       0.018700
     66 H27         -4.1070    -0.4890    -5.6740 hc         1 71C       0.030700
@<TRIPOS>BOND
     1    36    35 ar
     2    36     7 ar
     3    35     6 ar
     4     7     5 ar
     5     6    34 ar
     6    34     5 ar
     7     5    33 1
     8    33    32 1
     9    32    31 ar
    10    32     8 ar
    11    31    30 ar
    12     8     4 ar
    13    30    29 ar
    14     4    29 ar
    15     4     3 1
    16     3    28 1
    17    12    11 1
    18    12    37 1
    19    11    10 1
    20    28     9 1
    21    28    26 1
    22    10     9 1
    23    37    38 ar
    24    37    42 ar
    25    38    39 ar
    26    27    26 2
    27    39    40 ar
    28    42     9 1
    29    42    41 ar
    30    40    41 ar
    31    26     1 1
    32    21    19 1
    33    19    20 1
    34    19    18 1
    35     1    18 ar
    36     1     2 ar
    37    18    17 ar
    38     2    22 ar
    39    17    16 ar
    40    22    16 ar
    41    22    23 1
    42    16    14 1
    43    23    24 1
    44    23    25 1
    45    14    15 1
    46    14    13 1
    47     2    43 1
    48     3    44 1
    49     3    45 1
    50     6    46 1
    51     7    47 1
    52     8    48 1
    53    10    49 1
    54    11    50 1
    55    12    51 1
    56    17    52 1
    57    29    53 1
    58    30    54 1
    59    31    55 1
    60    34    56 1
    61    35    57 1
    62    36    58 1
    63    38    59 1
    64    39    60 1
    65    40    61 1
    66    41    62 1
    67     9    63 1
    68    10    64 1
    69    11    65 1
    70    12    66 1
@<TRIPOS>SUBSTRUCTURE
     1 71C         1 TEMP              0 ****  ****    0 ROOT
