@<TRIPOS>MOLECULE
71C
   66    70     1     0     0
SMALL
bcc


@<TRIPOS>ATOM
      1 C10          0.0000     0.0000     0.0000 ca         1 71C      -0.185600
      2 C11          1.3920     0.0000     0.0000 ca         1 71C      -0.149000
      3 C19          0.3210     2.1320    -1.8230 c3         1 71C       0.077300
      4 C20         -0.3800     3.1920    -1.0130 ca         1 71C      -0.068300
      5 C26         -2.8160     7.2320    -0.7610 ca         1 71C       0.150100
      6 C28         -2.4980     9.1900     0.5840 ca         1 71C      -0.096000
      7 C31         -4.1840     7.3080    -0.5440 ca         1 71C      -0.123500
      8 C32         -1.0230     4.2340    -1.6510 ca         1 71C      -0.150000
      9 C33         -1.4250     1.1020    -3.3500 c3         1 71C       0.116000
     10 C34         -1.0170    -0.0450    -4.2720 c3         1 71C      -0.068400
     11 C35         -2.0130    -0.1050    -5.4370 c3         1 71C      -0.023400
     12 C36         -3.3560    -0.5890    -4.8990 c3         1 71C       0.042900
     13 O01          1.4550     0.1300     4.8690 o          1 71C      -0.892800
     14 C02          2.1220     0.0030     3.7060 c          1 71C       0.966200
     15 O03          3.3310    -0.1110     3.7100 o          1 71C      -0.892800
     16 C04          1.3830     0.0010     2.4240 ca         1 71C      -0.107600
     17 C05         -0.0090     0.0020     2.4230 ca         1 71C      -0.057000
     18 C06         -0.7040     0.0010     1.2160 ca         1 71C      -0.141600
     19 C07         -2.1850     0.0010     1.2160 c          1 71C       0.981200
     20 O08         -2.8590     0.1030     2.3770 o          1 71C      -0.912300
     21 O09         -2.7910    -0.0890     0.1680 o          1 71C      -0.912300
     22 C12          2.0870     0.0000     1.2060 ca         1 71C      -0.074600
     23 C13          3.5670    -0.0000     1.2070 c          1 71C       1.005200
     24 O14          4.1750     0.8640     1.8060 o          1 71C      -0.910300
     25 O15          4.2410    -0.9600     0.5430 o          1 71C      -0.910300
     26 C16         -0.7400     0.0060    -1.2840 c          1 71C       0.657700
     27 O17         -1.4570    -0.9310    -1.5760 o          1 71C      -0.608100
     28 N18         -0.6180     1.0490    -2.1280 n          1 71C      -0.186800
     29 C21         -0.3830     3.1180     0.3670 ca         1 71C      -0.070000
     30 C22         -1.0240     4.0890     1.1130 ca         1 71C      -0.039000
     31 C23         -1.6660     5.1370     0.4800 ca         1 71C      -0.218000
     32 C24         -1.6740     5.2070    -0.9050 ca         1 71C       0.088100
     33 O25         -2.3040     6.2360    -1.5310 os         1 71C      -0.242200
     34 C27         -1.9730     8.1780    -0.1970 ca         1 71C      -0.123500
     35 C29         -3.8620     9.2590     0.8050 ca         1 71C      -0.137000
     36 C30         -4.7030     8.3200     0.2390 ca         1 71C      -0.096000
     37 C37         -3.7710     0.2230    -3.7000 ca         1 71C      -0.076300
     38 C38         -5.1050     0.1740    -3.3150 ca         1 71C      -0.139000
     39 C39         -5.5460     0.8930    -2.2240 ca         1 71C      -0.118000
     40 C40         -4.6540     1.6680    -1.5050 ca         1 71C      -0.063000
     41 C41         -3.3300     1.7170    -1.8850 ca         1 71C      -0.031000
     42 C42         -2.8840     0.9960    -2.9860 ca         1 71C      -0.061300
     43 H1           1.9340    -0.0010    -0.9380 ha         1 71C       0.091000
     44 H2           1.1560     1.7370    -1.2550 h1         1 71C       0.042200
     45 H3           0.6850     2.5650    -2.7470 h1         1 71C       0.042200
     46 H4          -1.8400     9.9280     1.0270 ha         1 71C       0.092000
     47 H5          -4.8450     6.5720    -0.9870 ha         1 71C       0.120500
     48 H6          -1.0280     4.2870    -2.7340 ha         1 71C       0.100000
     49 H7          -0.0190     0.1340    -4.6550 hc         1 71C       0.040200
     50 H8          -1.6520    -0.8130    -6.1730 hc         1 71C      -0.006300
     51 H9          -3.2700    -1.6300    -4.6110 hc         1 71C       0.002700
     52 H11         -0.5510     0.0020     3.3610 ha         1 71C       0.149000
     53 H14          0.1190     2.2980     0.8660 ha         1 71C       0.183000
     54 H15         -1.0210     4.0310     2.1950 ha         1 71C       0.120000
     55 H16         -2.1710     5.8960     1.0640 ha         1 71C       0.104000
     56 H17         -0.9050     8.1230    -0.3670 ha         1 71C       0.120500
     57 H18         -4.2710    10.0530     1.4180 ha         1 71C       0.088000
     58 H19         -5.7710     8.3780     0.4110 ha         1 71C       0.092000
     59 H20         -5.8040    -0.4320    -3.8780 ha         1 71C       0.072000
     60 H21         -6.5880     0.8500    -1.9300 ha         1 71C       0.073000
     61 H22         -4.9950     2.2340    -0.6470 ha         1 71C       0.099000
     62 H23         -2.6310     2.3240    -1.3220 ha         1 71C       0.132000
     63 H24         -1.2530     2.0440    -3.8560 h1         1 71C       0.007700
     64 H25         -1.0420    -0.9790    -3.7240 hc         1 71C       0.040200
     65 H26         -2.1350     0.8900    -5.8480 hc         1 71C      -0.006300
     66 H27         -4.1070    -0.4890    -5.6740 hc         1 71C       0.002700
@<TRIPOS>BOND
     1     1     2 ar  
     2     1    18 ar  
     3     1    26 1   
     4     2    22 ar  
     5     2    43 1   
     6     3     4 1   
     7     3    28 1   
     8     3    44 1   
     9     3    45 1   
    10     4     8 ar  
    11     4    29 ar  
    12     5     7 ar  
    13     5    33 1   
    14     5    34 ar  
    15     6    34 ar  
    16     6    35 ar  
    17     6    46 1   
    18     7    36 ar  
    19     7    47 1   
    20     8    32 ar  
    21     8    48 1   
    22     9    10 1   
    23     9    28 1   
    24     9    42 1   
    25     9    63 1   
    26    10    11 1   
    27    10    49 1   
    28    10    64 1   
    29    11    12 1   
    30    11    50 1   
    31    11    65 1   
    32    12    37 1   
    33    12    51 1   
    34    12    66 1   
    35    13    14 1   
    36    14    15 1   
    37    14    16 1   
    38    16    17 ar  
    39    16    22 ar  
    40    17    18 ar  
    41    17    52 1   
    42    18    19 1   
    43    19    20 1   
    44    19    21 1   
    45    22    23 1   
    46    23    24 1   
    47    23    25 1   
    48    26    27 2   
    49    26    28 1   
    50    29    30 ar  
    51    29    53 1   
    52    30    31 ar  
    53    30    54 1   
    54    31    32 ar  
    55    31    55 1   
    56    32    33 1   
    57    34    56 1   
    58    35    36 ar  
    59    35    57 1   
    60    36    58 1   
    61    37    38 ar  
    62    37    42 ar  
    63    38    39 ar  
    64    38    59 1   
    65    39    40 ar  
    66    39    60 1   
    67    40    41 ar  
    68    40    61 1   
    69    41    42 ar  
    70    41    62 1   
@<TRIPOS>SUBSTRUCTURE
     1 71C         1 TEMP              0 ****  ****    0 ROOT
