@<TRIPOS>MOLECULE
molecule
   56    58     1     0     0
SMALL
bcc


@<TRIPOS>ATOM
      1 C1           0.0000     0.0000     0.0000 ca         1 71D       0.744900
      2 C2           1.9970     0.0000     1.1460 ca         1 71D       0.527800
      3 C3           1.2780    -0.0110     2.3530 ca         1 71D      -0.391400
      4 C4           2.2800    -0.0280     3.4270 cc         1 71D      -0.062400
      5 C5           2.0180    -0.0440     4.8860 ca         1 71D      -0.038800
      6 C6           2.3950     1.0400     5.6770 ca         1 71D      -0.108000
      7 C13          5.3320    -1.4800     3.6290 c3         1 71D      -0.074600
      8 C14          4.4360    -2.2630     4.4950 c1         1 71D       0.213700
      9 C15          6.7220    -1.4820     4.2120 c          1 71D       0.663100
     10 C16          8.7270    -2.6470     4.9580 c3         1 71D       0.109700
     11 C17          8.6390    -2.6320     6.4860 c3         1 71D      -0.107600
     12 C18          9.4700    -3.9040     4.5020 c3         1 71D      -0.107600
     13 C20          4.7590     1.4420     0.1090 c3         1 71D       0.118400
     14 O            7.2510    -0.4350     4.5220 o          1 71D      -0.598100
     15 N4           7.3760    -2.6460     4.3910 ns         1 71D      -0.574900
     16 N3           3.7280    -2.8600     5.1540 n1         1 71D      -0.349800
     17 C11          3.4930    -0.0260     2.8200 cd         1 71D      -0.076300
     18 N5           3.3280    -0.0090     1.4630 na         1 71D      -0.153100
     19 O1           5.8420     1.4480    -0.8220 os         1 71D      -0.432600
     20 C21          6.2390     2.7560    -1.2420 c3         1 71D       0.132700
     21 N2           1.3160     0.0000     0.0000 nb         1 71D      -0.806000
     22 N1          -0.7130     0.0010     1.1120 nb         1 71D      -0.838000
     23 C           -0.1230    -0.0050     2.3040 ca         1 71D       0.778200
     24 N           -0.8740    -0.0150     3.4660 nv         1 71D      -0.995500
     25 C10          1.3880    -1.1420     5.4700 ca         1 71D      -0.108000
     26 C9           1.1450    -1.1520     6.8280 ca         1 71D      -0.122500
     27 C8           1.5270    -0.0750     7.6110 ca         1 71D       0.028400
     28 Cl           1.2190    -0.0950     9.3180 cl         1 71D      -0.108400
     29 C7           2.1480     1.0190     7.0340 ca         1 71D      -0.122500
     30 H1          -0.5410    -0.0000    -0.9390 h5         1 71D       0.060100
     31 H2           2.8800     1.8970     5.2250 ha         1 71D       0.148000
     32 H3           5.3550    -1.9210     2.6400 hc         1 71D       0.092700
     33 H4           9.2300    -1.7500     4.6170 h1         1 71D       0.080700
     34 H5           8.2560    -1.6740     6.8160 hc         1 71D       0.044700
     35 H6           9.6250    -2.7920     6.9060 hc         1 71D       0.044700
     36 H7           7.9740    -3.4210     6.8170 hc         1 71D       0.044700
     37 H8           8.9740    -4.7810     4.9010 hc         1 71D       0.044700
     38 H9          10.4910    -3.8710     4.8640 hc         1 71D       0.044700
     39 H10          9.4720    -3.9500     3.4200 hc         1 71D       0.044700
     40 H11          5.3370    -0.5710     0.5970 h1         1 71D       0.085200
     41 H12          3.8130    -0.4470    -0.2930 h1         1 71D       0.085200
     42 H13          5.0370     2.0050     0.9910 h1         1 71D       0.038200
     43 H14          3.8870     1.8940    -0.3480 h1         1 71D       0.038200
     44 H15          6.9440    -3.5080     4.1250 hn         1 71D       0.317500
     45 H16          4.6970     0.3650     4.5300 hc         1 71D       0.085700
     46 H17          5.5340     0.5600     2.9840 hc         1 71D       0.085700
     47 H18          5.3960     3.2590    -1.7010 h1         1 71D       0.033367
     48 H19          7.0460     2.6760    -1.9590 h1         1 71D       0.033367
     49 H20          6.5730     3.3240    -0.3830 h1         1 71D       0.033367
     50 H21         -1.8520    -0.2240     3.4280 hn         1 71D       0.447800
     51 H22         -0.4460     0.2200     4.3400 hn         1 71D       0.447800
     52 H23          1.0890    -1.9840     4.8580 ha         1 71D       0.148000
     53 H24          0.6560    -2.0040     7.2850 ha         1 71D       0.147500
     54 H25          2.4400     1.8610     7.6510 ha         1 71D       0.147500
     55 C19          4.4210    -0.0030     0.4860 c3         1 71D       0.027300
     56 C12          4.8200    -0.0410     3.5340 c3         1 71D       0.006800
@<TRIPOS>BOND
     1    20    19 1   
     2    19    13 1   
     3    16     8 3   
     4    13    55 1   
     5    55    18 1   
     6     8     7 1   
     7    21     1 ar  
     8    21     2 ar  
     9    18     2 1   
    10    18    17 1   
    11    14     9 2   
    12    12    10 1   
    13     1    22 ar  
    14     2     3 ar  
    15     9     7 1   
    16     9    15 1   
    17     7    56 1   
    18    15    10 1   
    19    17    56 1   
    20    17     4 2   
    21    22    23 ar  
    22     3    23 ar  
    23     3     4 1   
    24    10    11 1   
    25    23    24 1   
    26     4     5 1   
    27     6     5 ar  
    28     6    29 ar  
    29     5    25 ar  
    30    29    27 ar  
    31    25    26 ar  
    32    27    26 ar  
    33    27    28 1   
    34     1    30 1   
    35     6    31 1   
    36     7    32 1   
    37    10    33 1   
    38    11    34 1   
    39    11    35 1   
    40    11    36 1   
    41    12    37 1   
    42    12    38 1   
    43    12    39 1   
    44    55    40 1   
    45    55    41 1   
    46    13    42 1   
    47    13    43 1   
    48    15    44 1   
    49    56    45 1   
    50    56    46 1   
    51    20    47 1   
    52    20    48 1   
    53    20    49 1   
    54    24    50 1   
    55    24    51 1   
    56    25    52 1   
    57    26    53 1   
    58    29    54 1   
@<TRIPOS>SUBSTRUCTURE
     1 71D         1 TEMP              0 ****  ****    0 ROOT
