@<TRIPOS>MOLECULE
molecule
   18    18     1     0     0
SMALL
bcc


@<TRIPOS>ATOM
      1 C1           0.0000     0.0000     0.0000 c3         1 71F       0.123700
      2 O1           1.4290     0.0000     0.0000 os         1 71F      -0.263900
      3 C2           2.0450     0.0000     1.2080 ca         1 71F       0.153100
      4 C3           3.4450     0.0000     1.2840 ca         1 71F      -0.127600
      5 C4           4.0670     0.0010     2.5360 ca         1 71F      -0.065000
      6 C5           3.3050     0.0020     3.6830 ca         1 71F      -0.202000
      7 C6           1.9220     0.0020     3.6030 ca         1 71F      -0.120000
      8 C7           1.2930     0.0070     2.3730 ca         1 71F      -0.256000
      9 C8           4.2550    -0.0020     0.0530 c          1 71F       0.884200
     10 O9           3.7090    -0.0030    -1.0320 o          1 71F      -0.833300
     11 O11          5.6000    -0.0020     0.1310 o          1 71F      -0.833300
     12 H1          -0.3610     0.8860     0.5080 h1         1 71F       0.023367
     13 H2          -0.3610    -0.0030    -1.0210 h1         1 71F       0.023367
     14 H3          -0.3610    -0.8830     0.5130 h1         1 71F       0.023367
     15 H4           5.1490     0.0010     2.6030 ha         1 71F       0.157000
     16 H5           3.7890     0.0000     4.6520 ha         1 71F       0.103000
     17 H6           1.3310     0.0050     4.5100 ha         1 71F       0.098000
     18 H7           0.2110     0.0070     2.3190 ha         1 71F       0.109000
@<TRIPOS>BOND
     1     1     2 1   
     2     2     3 1   
     3     8     3 ar  
     4     8     7 ar  
     5     3     4 ar  
     6     7     6 ar  
     7     4     9 1   
     8     4     5 ar  
     9    10     9 1   
    10     9    11 1   
    11     6     5 ar  
    12     1    12 1   
    13     1    13 1   
    14     1    14 1   
    15     5    15 1   
    16     6    16 1   
    17     7    17 1   
    18     8    18 1   
@<TRIPOS>SUBSTRUCTURE
     1 71F         1 TEMP              0 ****  ****    0 ROOT
