@<TRIPOS>MOLECULE
71G
   15    15     1     0     0
SMALL
bcc


@<TRIPOS>ATOM
      1 C3           0.0000     0.0000     0.0000 ca         1 71G       0.030000
      2 C2           1.3940     0.0000     0.0000 ca         1 71G      -0.085000
      3 N1           3.4800     0.0010     1.2100 nv         1 71G      -0.560200
      4 C4          -0.6940    -0.0020     1.2130 ca         1 71G      -0.076000
      5 C6           1.3830    -0.0010     2.4050 ca         1 71G      -0.094000
      6 C7          -0.7190     0.0060    -1.2380 cg         1 71G       0.232800
      7 C1           2.0820     0.0000     1.2040 ca         1 71G       0.031600
      8 C5           0.0000    -0.0020     2.4050 ca         1 71G      -0.097000
      9 N8          -1.3060     0.0060    -2.2120 n1         1 71G      -0.383800
     10 H1           1.9360     0.0020    -0.9380 ha         1 71G       0.118000
     11 H2           3.9800     0.8680     1.2150 hn         1 71G       0.276800
     12 H3           3.9810    -0.8650     1.2080 hn         1 71G       0.276800
     13 H4          -1.7770    -0.0020     1.2170 ha         1 71G       0.112000
     14 H5           1.9210    -0.0010     3.3450 ha         1 71G       0.111000
     15 H6          -0.5380    -0.0040     3.3450 ha         1 71G       0.108000
@<TRIPOS>BOND
     1     1     2 ar  
     2     1     4 ar  
     3     1     6 1   
     4     2     7 ar  
     5     2    10 1   
     6     3     7 1   
     7     3    11 1   
     8     3    12 1   
     9     4     8 ar  
    10     4    13 1   
    11     5     7 ar  
    12     5     8 ar  
    13     5    14 1   
    14     6     9 3   
    15     8    15 1   
@<TRIPOS>SUBSTRUCTURE
     1 71G         1 TEMP              0 ****  ****    0 ROOT
