@<TRIPOS>MOLECULE
molecule
   84    89     1     0     0
SMALL
bcc


@<TRIPOS>ATOM
      1 N1           0.0000     0.0000     0.0000 n          1 71H      -0.487800
      2 N3          -2.1680    -5.1090     1.1940 nc         1 71H      -0.727100
      3 C4           1.9740     0.0000     1.4430 c3         1 71H       0.134800
      4 C5           1.4660     0.0000     0.0000 c3         1 71H       0.093000
      5 C6          -0.7320     1.2690    -0.0010 c3         1 71H       0.173000
      6 C7          -0.9870     1.7090    -1.4440 cy         1 71H      -0.155000
      7 C8           0.0350     2.0210    -2.5650 cy         1 71H      -0.057400
      8 C10         -1.7690     0.9790    -2.5650 cy         1 71H      -0.057400
      9 C13         -0.4750     2.8990    -5.5730 ca         1 71H      -0.124000
     10 C15         -1.9860     3.4400    -7.3490 ca         1 71H      -0.183300
     11 C17         -2.8380     2.8430    -5.1920 ca         1 71H      -0.124000
     12 C21         -1.3180    -4.1040    -1.2130 cc         1 71H       0.145000
     13 C22         -1.0230    -3.7530    -2.6060 ce         1 71H      -0.155000
     14 C24         -2.5130    -5.4960    -2.6140 c3         1 71H      -0.003000
     15 C26         -2.6380    -5.6510     0.0580 c          1 71H       0.727700
     16 C28         -1.6150    -4.4740     3.8560 c3         1 71H       0.068000
     17 C32         -0.6020    -3.3070     7.8390 ca         1 71H       0.141900
     18 C31          0.1420    -4.2790     7.1910 ca         1 71H      -0.169500
     19 C30         -0.1870    -4.6550     5.9040 ca         1 71H      -0.084500
     20 C33         -1.6780    -2.7180     7.1970 ca         1 71H      -0.169500
     21 C34         -2.0050    -3.0960     5.9080 ca         1 71H      -0.084500
     22 C29         -1.2580    -4.0620     5.2610 ca         1 71H      -0.108300
     23 C27         -1.3130    -4.1080     1.1610 cd         1 71H       0.702100
     24 O1          -3.4310    -6.5800     0.1010 o          1 71H      -0.568100
     25 C25         -2.2050    -5.1420    -1.1820 cd         1 71H      -0.260400
     26 C23         -1.6930    -4.5340    -3.4440 c2         1 71H      -0.132200
     27 N2          -0.8720    -3.5860    -0.0160 na         1 71H      -0.561400
     28 C19         -0.6730    -1.1680    -0.0050 c          1 71H       0.640100
     29 O           -1.8860    -1.1680    -0.0060 o          1 71H      -0.575100
     30 N            3.4440     0.0010     1.4440 n3         1 71H      -0.734600
     31 C2           3.9700     1.2540     0.8860 c3         1 71H       0.155800
     32 C3           5.4530     1.0800     0.5500 c3         1 71H      -0.094100
     33 C1           3.9690    -0.2360     2.7940 c3         1 71H       0.155800
     34 C            3.8270    -1.7200     3.1440 c3         1 71H      -0.094100
     35 C11         -1.7150     2.9690    -1.9610 cy         1 71H      -0.057400
     36 C9          -1.3070     2.2630    -3.2990 cy         1 71H      -0.097700
     37 C12         -1.5460     2.6800    -4.7280 ca         1 71H       0.008700
     38 C16         -3.0590     3.2150    -6.5050 ca         1 71H      -0.080000
     39 F2          -3.4400     3.3190    -9.2230 f          1 71H      -0.223967
     40 F1          -2.2790     5.2520    -8.8530 f          1 71H      -0.223967
     41 F           -1.1850     3.3840    -9.5820 f          1 71H      -0.223967
     42 C14         -0.6950     3.2820    -6.8830 ca         1 71H      -0.080000
     43 H1           1.6130     0.8840     1.9530 h1         1 71H       0.043700
     44 H2           1.6130    -0.8850     1.9530 h1         1 71H       0.043700
     45 H3           1.8270    -0.8850    -0.5110 h1         1 71H       0.060200
     46 H4           1.8270     0.8850    -0.5100 h1         1 71H       0.060200
     47 H5          -1.6790     1.1400     0.5090 h1         1 71H       0.069700
     48 H6          -0.1470     2.0240     0.5090 h1         1 71H       0.069700
     49 H7           0.6160     2.9200    -2.3960 hc         1 71H       0.057533
     50 H8           0.5840     1.1570    -2.9180 hc         1 71H       0.057533
     51 H9          -1.2940     0.0720    -2.9170 hc         1 71H       0.057533
     52 H10         -2.8380     0.9260    -2.3960 hc         1 71H       0.057533
     53 H11          0.5380     2.7740    -5.2080 ha         1 71H       0.142000
     54 H12         -3.6770     2.6690    -4.5300 ha         1 71H       0.142000
     55 H13          0.7030    -2.5340     0.8730 h1         1 71H       0.090200
     56 H14          0.7030    -2.5260    -0.8960 h1         1 71H       0.090200
     57 H15         -0.0400    -3.3860    -2.8760 ha         1 71H       0.135000
     58 H16         -3.5680    -5.3590    -2.8160 hc         1 71H       0.092200
     59 H17         -2.2130    -6.5170    -2.8200 hc         1 71H       0.092200
     60 H18         -2.6820    -4.3600     3.7060 h1         1 71H       0.096200
     61 H19         -1.3370    -5.5090     3.7010 h1         1 71H       0.096200
     62 H20          0.9820    -4.7430     7.6940 ha         1 71H       0.148500
     63 H21          0.3950    -5.4160     5.3970 ha         1 71H       0.144500
     64 H22         -2.2640    -1.9600     7.7040 ha         1 71H       0.148500
     65 H23         -2.8470    -2.6350     5.4060 ha         1 71H       0.144500
     66 H24         -1.2250    -4.8720    -4.3610 ha         1 71H       0.155000
     67 H26          3.4230     1.5060    -0.0140 h1         1 71H       0.035700
     68 H27          3.8550     2.0490     1.6130 h1         1 71H       0.035700
     69 H28          6.0540     1.3910     1.3960 hc         1 71H       0.041033
     70 H29          5.7010     1.6870    -0.3120 hc         1 71H       0.041033
     71 H30          5.6530     0.0380     0.3280 hc         1 71H       0.041033
     72 H31          5.0150     0.0440     2.8290 h1         1 71H       0.035700
     73 H32          3.4120     0.3580     3.5080 h1         1 71H       0.035700
     74 H33          4.6240    -2.0100     3.8170 hc         1 71H       0.041033
     75 H34          2.8700    -1.8870     3.6240 hc         1 71H       0.041033
     76 H35          3.8850    -2.3110     2.2380 hc         1 71H       0.041033
     77 H36         -1.1880     3.8960    -1.7700 hc         1 71H       0.057533
     78 H37         -2.7810     2.9750    -1.7700 hc         1 71H       0.057533
     79 H38         -4.0710     3.3420    -6.8690 ha         1 71H       0.148000
     80 H39          0.1450     3.4560    -7.5450 ha         1 71H       0.148000
     81 C18         -2.2270     3.8560    -8.7770 c3         1 71H       0.673200
     82 C20          0.0800    -2.4730    -0.0110 c3         1 71H       0.130800
     83 S           -0.7260    -3.4280     2.6760 ss         1 71H      -0.207300
     84 F3          -0.2810    -2.9380     9.0990 f          1 71H      -0.138900
@<TRIPOS>BOND
     1    26    13 2
     2    26    14 1
     3    13    12 1
     4    14    25 1
     5    12    25 2
     6    12    27 1
     7    25    15 1
     8    15    24 2
     9    15     2 1
    10    27    23 1
    11    27    82 1
    12     2    23 2
    13    23    83 1
    14    82    28 1
    15    83    16 1
    16    16    22 1
    17    21    20 ar
    18    21    22 ar
    19     7     6 1
    20     7    36 1
    21     5     6 1
    22     5     1 1
    23    20    17 ar
    24    22    19 ar
    25    28     1 1
    26    28    29 2
    27     8     6 1
    28     8    36 1
    29     6    35 1
    30     1     4 1
    31    36    37 1
    32    36    35 1
    33    37    11 ar
    34    37     9 ar
    35    17    84 1
    36    17    18 ar
    37    19    18 ar
    38    11    38 ar
    39     9    42 ar
    40    38    10 ar
    41     4     3 1
    42     3    30 1
    43    39    81 1
    44    42    10 ar
    45    10    81 1
    46    81    40 1
    47    81    41 1
    48    30    33 1
    49    30    31 1
    50    32    31 1
    51    33    34 1
    52     3    43 1
    53     3    44 1
    54     4    45 1
    55     4    46 1
    56     5    47 1
    57     5    48 1
    58     7    49 1
    59     7    50 1
    60     8    51 1
    61     8    52 1
    62     9    53 1
    63    11    54 1
    64    82    55 1
    65    82    56 1
    66    13    57 1
    67    14    58 1
    68    14    59 1
    69    16    60 1
    70    16    61 1
    71    18    62 1
    72    19    63 1
    73    20    64 1
    74    21    65 1
    75    26    66 1
    76    31    67 1
    77    31    68 1
    78    32    69 1
    79    32    70 1
    80    32    71 1
    81    33    72 1
    82    33    73 1
    83    34    74 1
    84    34    75 1
    85    34    76 1
    86    35    77 1
    87    35    78 1
    88    38    79 1
    89    42    80 1
@<TRIPOS>SUBSTRUCTURE
     1 71H         1 TEMP              0 ****  ****    0 ROOT
