@<TRIPOS>MOLECULE
71I
   38    39     1     0     0
SMALL
bcc


@<TRIPOS>ATOM
      1 O1           0.0000     0.0000     0.0000 oh         1 71I      -0.581800
      2 C1           1.4280     0.0000     0.0000 c3         1 71I       0.228400
      3 C2           1.9380     0.0000     1.4420 c3         1 71I       0.153100
      4 O2           1.5660    -1.2140     2.0850 os         1 71I      -0.344600
      5 C3           3.4710     0.0830     1.4520 c3         1 71I       0.143100
      6 O3           3.8940     1.2420     0.7310 oh         1 71I      -0.579800
      7 C4           3.9300     0.1830     2.9010 c3         1 71I       0.172100
      8 O4           5.3590     0.1940     2.9360 oh         1 71I      -0.580800
      9 C5           3.4250    -0.9770     3.7430 c3         1 71I       0.094500
     10 C6           2.0200    -1.4450     3.3860 c3         1 71I       0.310200
     11 N1           3.4570    -0.5910     5.1510 n2         1 71I      -0.675900
     12 C7           2.3420    -0.3760     5.7690 c2         1 71I       0.550100
     13 S1           1.0010    -0.5750     4.6230 ss         1 71I      -0.419300
     14 N2           2.2150    -0.0490     7.0980 nu         1 71I      -0.422200
     15 C8           0.8870     0.1670     7.6760 c3         1 71I       0.148800
     16 C9           1.0250     0.5170     9.1590 c3         1 71I      -0.038400
     17 C10         -0.3620     0.7430     9.7620 c3         1 71I      -0.022400
     18 C11         -0.2240     1.0920    11.2450 c3         1 71I       0.006900
     19 H1          -0.3140     0.0890    -0.8840 ho         1 71I       0.389000
     20 H2           1.7890     0.8840    -0.5110 h1         1 71I      -0.000800
     21 H3           1.7890    -0.8840    -0.5110 h1         1 71I      -0.000800
     22 H4           1.5240     0.8420     1.9830 h1         1 71I       0.046700
     23 H5           3.8870    -0.8080     0.9990 h1         1 71I       0.023700
     24 H6           4.6390     1.0240     0.1950 ho         1 71I       0.400000
     25 H7           3.5580     1.1090     3.3230 h1         1 71I       0.025700
     26 H8           5.6560     0.9440     3.4230 ho         1 71I       0.401000
     27 H9           4.1020    -1.8120     3.6060 h1         1 71I       0.062700
     28 H10          1.9580    -2.5090     3.5800 h2         1 71I       0.069700
     29 H11          3.0300     0.0360     7.6730 hn         1 71I       0.301800
     30 H12          0.3960     0.9820     7.1580 h1         1 71I       0.028200
     31 H13          0.2960    -0.7350     7.5710 h1         1 71I       0.028200
     32 H14          1.6160     1.4180     9.2640 hc         1 71I       0.020200
     33 H15          1.5150    -0.2990     9.6780 hc         1 71I       0.020200
     34 H16         -0.8520     1.5590     9.2440 hc         1 71I       0.016200
     35 H17         -0.9530    -0.1580     9.6560 hc         1 71I       0.016200
     36 H18          0.3680     1.9930    11.3510 hc         1 71I       0.002367
     37 H19         -1.2060     1.2520    11.6720 hc         1 71I       0.002367
     38 H20          0.2660     0.2760    11.7640 hc         1 71I       0.002367
@<TRIPOS>BOND
     1     1     2 1   
     2     1    19 1   
     3     2     3 1   
     4     2    20 1   
     5     2    21 1   
     6     3     4 1   
     7     3     5 1   
     8     3    22 1   
     9     4    10 1   
    10     5     6 1   
    11     5     7 1   
    12     5    23 1   
    13     6    24 1   
    14     7     8 1   
    15     7     9 1   
    16     7    25 1   
    17     8    26 1   
    18     9    10 1   
    19     9    11 1   
    20     9    27 1   
    21    10    13 1   
    22    10    28 1   
    23    11    12 2   
    24    12    13 1   
    25    12    14 1   
    26    14    15 1   
    27    14    29 1   
    28    15    16 1   
    29    15    30 1   
    30    15    31 1   
    31    16    17 1   
    32    16    32 1   
    33    16    33 1   
    34    17    18 1   
    35    17    34 1   
    36    17    35 1   
    37    18    36 1   
    38    18    37 1   
    39    18    38 1   
@<TRIPOS>SUBSTRUCTURE
     1 71I         1 TEMP              0 ****  ****    0 ROOT
