@<TRIPOS>MOLECULE
molecule
   38    39     1     0     0
SMALL
bcc


@<TRIPOS>ATOM
      1 O1           0.0000     0.0000     0.0000 oh         1 71I      -0.598800
      2 C1           1.4280     0.0000     0.0000 c3         1 71I       0.153400
      3 C2           1.9380     0.0000     1.4420 c3         1 71I       0.141100
      4 O2           1.5660    -1.2140     2.0850 os         1 71I      -0.363600
      5 C3           3.4710     0.0830     1.4520 c3         1 71I       0.107100
      6 O3           3.8940     1.2420     0.7310 oh         1 71I      -0.599800
      7 C4           3.9300     0.1830     2.9010 c3         1 71I       0.137100
      8 O4           5.3590     0.1940     2.9360 oh         1 71I      -0.599800
      9 C5           3.4250    -0.9770     3.7430 c3         1 71I       0.098500
     10 C6           2.0200    -1.4450     3.3860 c3         1 71I       0.250200
     11 N1           3.4570    -0.5910     5.1510 n2         1 71I      -0.729900
     12 C7           2.3420    -0.3760     5.7690 c2         1 71I       0.722100
     13 S1           1.0010    -0.5750     4.6230 ss         1 71I      -0.397300
     14 N2           2.2150    -0.0490     7.0980 nu         1 71I      -0.855200
     15 C8           0.8870     0.1670     7.6760 c3         1 71I       0.232800
     16 C9           1.0250     0.5170     9.1590 c3         1 71I      -0.098400
     17 C10         -0.3620     0.7430     9.7620 c3         1 71I      -0.080400
     18 C11         -0.2240     1.0920    11.2450 c3         1 71I      -0.091100
     19 H1          -0.3140     0.0890    -0.8840 ho         1 71I       0.403000
     20 H2           1.7890     0.8840    -0.5110 h1         1 71I       0.038200
     21 H3           1.7890    -0.8840    -0.5110 h1         1 71I       0.038200
     22 H4           1.5240     0.8420     1.9830 h1         1 71I       0.078700
     23 H5           3.8870    -0.8080     0.9990 h1         1 71I       0.057700
     24 H6           4.6390     1.0240     0.1950 ho         1 71I       0.414000
     25 H7           3.5580     1.1090     3.3230 h1         1 71I       0.060700
     26 H8           5.6560     0.9440     3.4230 ho         1 71I       0.415000
     27 H9           4.1020    -1.8120     3.6060 h1         1 71I       0.099700
     28 H10          1.9580    -2.5090     3.5800 h2         1 71I       0.108700
     29 H11          3.0300     0.0360     7.6730 hn         1 71I       0.457800
     30 H12          0.3960     0.9820     7.1580 h1         1 71I       0.051700
     31 H13          0.2960    -0.7350     7.5710 h1         1 71I       0.051700
     32 H14          1.6160     1.4180     9.2640 hc         1 71I       0.049700
     33 H15          1.5150    -0.2990     9.6780 hc         1 71I       0.049700
     34 H16         -0.8520     1.5590     9.2440 hc         1 71I       0.045700
     35 H17         -0.9530    -0.1580     9.6560 hc         1 71I       0.045700
     36 H18          0.3680     1.9930    11.3510 hc         1 71I       0.035700
     37 H19         -1.2060     1.2520    11.6720 hc         1 71I       0.035700
     38 H20          0.2660     0.2760    11.7640 hc         1 71I       0.035700
@<TRIPOS>BOND
     1     1     2 1   
     2     2     3 1   
     3     3     4 1   
     4     3     5 1   
     5     4    10 1   
     6     5     6 1   
     7     5     7 1   
     8     7     8 1   
     9     7     9 1   
    10     9    10 1   
    11     9    11 1   
    12    10    13 1   
    13    11    12 2   
    14    12    13 1   
    15    12    14 1   
    16    14    15 1   
    17    15    16 1   
    18    16    17 1   
    19    17    18 1   
    20     1    19 1   
    21     2    20 1   
    22     2    21 1   
    23     3    22 1   
    24     5    23 1   
    25     6    24 1   
    26     7    25 1   
    27     8    26 1   
    28     9    27 1   
    29    10    28 1   
    30    14    29 1   
    31    15    30 1   
    32    15    31 1   
    33    16    32 1   
    34    16    33 1   
    35    17    34 1   
    36    17    35 1   
    37    18    36 1   
    38    18    37 1   
    39    18    38 1   
@<TRIPOS>SUBSTRUCTURE
     1 71I         1 TEMP              0 ****  ****    0 ROOT
