@<TRIPOS>MOLECULE
molecule
   20    20     1     0     0
SMALL
bcc


@<TRIPOS>ATOM
      1 O            0.0000     0.0000     0.0000 oh         1 71J      -0.606800
      2 C1           3.4680    -1.2500    -0.7200 c3         1 71J      -0.090900
      3 C            1.9380    -1.2500    -0.7210 c3         1 71J      -0.090900
      4 C2           3.9780    -1.2500     0.7220 c3         1 71J       0.146100
      5 O1           5.4070    -1.2500     0.7220 oh         1 71J      -0.606800
      6 C3           3.4690     0.0000     1.4430 c3         1 71J      -0.090900
      7 C4           1.9390     0.0000     1.4420 c3         1 71J      -0.090900
      8 C5           1.4290     0.0000     0.0000 c3         1 71J       0.146100
      9 H1          -0.3140     0.7700    -0.4450 ho         1 71J       0.401000
     10 H2           3.8280    -0.3640    -1.2290 hc         1 71J       0.052200
     11 H3           3.8280    -2.1360    -1.2290 hc         1 71J       0.052200
     12 H4           1.5780    -2.1340    -0.2080 hc         1 71J       0.052200
     13 H5           1.5790    -1.2480    -1.7430 hc         1 71J       0.052200
     14 H6           3.6130    -2.1330     1.2320 h1         1 71J       0.032700
     15 H7           5.7220    -2.0200     1.1660 ho         1 71J       0.401000
     16 H8           3.8290     0.8840     0.9300 hc         1 71J       0.052200
     17 H9           3.8280    -0.0020     2.4650 hc         1 71J       0.052200
     18 H10          1.5790    -0.8860     1.9510 hc         1 71J       0.052200
     19 H11          1.5790     0.8860     1.9510 hc         1 71J       0.052200
     20 H12          1.7950     0.8830    -0.5100 h1         1 71J       0.032700
@<TRIPOS>BOND
     1     1     8 1
     2     7     8 1
     3     7     6 1
     4     8     3 1
     5     6     4 1
     6     3     2 1
     7     4     2 1
     8     4     5 1
     9     1     9 1
    10     2    10 1
    11     2    11 1
    12     3    12 1
    13     3    13 1
    14     4    14 1
    15     5    15 1
    16     6    16 1
    17     6    17 1
    18     7    18 1
    19     7    19 1
    20     8    20 1
@<TRIPOS>SUBSTRUCTURE
     1 71J         1 TEMP              0 ****  ****    0 ROOT
