@<TRIPOS>MOLECULE
molecule
   19    19     1     0     0
SMALL
bcc


@<TRIPOS>ATOM
      1 C3           0.0000     0.0000     0.0000 ca         1 71K      -0.208000
      2 C2           1.3810     0.0000     0.0000 ca         1 71K      -0.083000
      3 C1           2.0750     0.0000     1.1940 ca         1 71K      -0.208000
      4 C4          -0.6970     0.0060     1.2030 ca         1 71K       0.208100
      5 C5          -0.0030     0.0130     2.4040 ca         1 71K      -0.177300
      6 C6          -0.7540     0.0190     3.7100 c3         1 71K      -0.038800
      7 N1          -2.0940     0.0180     1.2020 nv         1 71K      -0.956200
      8 C            1.3850     0.0010     2.4010 ca         1 71K       0.208100
      9 N            2.0870     0.0060     3.6080 nv         1 71K      -0.956200
     10 H1          -0.5410    -0.0030    -0.9390 ha         1 71K       0.128500
     11 H2           1.9220    -0.0030    -0.9390 ha         1 71K       0.126000
     12 H3           3.1580    -0.0050     1.1910 ha         1 71K       0.128500
     13 H4          -0.4840     0.9000     4.2790 hc         1 71K       0.038700
     14 H5          -1.8200     0.0290     3.5140 hc         1 71K       0.038700
     15 H6          -0.5000    -0.8690     4.2770 hc         1 71K       0.038700
     16 H7          -2.5860     0.8890     1.1750 hn         1 71K       0.427550
     17 H8          -2.6010    -0.8440     1.1830 hn         1 71K       0.427550
     18 H9           3.0880     0.0050     3.6050 hn         1 71K       0.427550
     19 H10          1.5900     0.0050     4.4770 hn         1 71K       0.427550
@<TRIPOS>BOND
     1     7     4 1
     2     6     5 1
     3     4     5 ar
     4     4     1 ar
     5     5     8 ar
     6     1     2 ar
     7     8     9 1
     8     8     3 ar
     9     2     3 ar
    10     1    10 1
    11     2    11 1
    12     3    12 1
    13     6    13 1
    14     6    14 1
    15     6    15 1
    16     7    16 1
    17     7    17 1
    18     9    18 1
    19     9    19 1
@<TRIPOS>SUBSTRUCTURE
     1 71K         1 TEMP              0 ****  ****    0 ROOT
