@<TRIPOS>MOLECULE
71L
   19    19     1     0     0
SMALL
bcc


@<TRIPOS>ATOM
      1 C4           0.0000     0.0000     0.0000 ca         1 71L       0.502200
      2 C6          -0.0600     0.0080     2.3080 ca         1 71L       0.385600
      3 C7           1.3190     0.0020     2.3820 ca         1 71L      -0.228300
      4 C8          -0.8730     0.0160     3.5760 c3         1 71L      -0.041400
      5 C3           1.3910     0.0000     0.0000 ca         1 71L      -0.233300
      6 C2           2.0640     0.0000     1.2100 ca         1 71L      -0.052300
      7 C1           3.5700    -0.0000     1.2530 c3         1 71L       0.063200
      8 N5          -0.6740     0.0080     1.1400 nb         1 71L      -0.592000
      9 N9          -0.6890     0.0000    -1.2080 nv         1 71L      -0.660500
     10 H1           1.8150     0.0020     3.3450 ha         1 71L       0.117000
     11 H2          -1.9270     0.0190     3.3290 hc         1 71L       0.013033
     12 H3          -0.6340     0.9020     4.1520 hc         1 71L       0.013033
     13 H4          -0.6410    -0.8670     4.1590 hc         1 71L       0.013033
     14 H5           1.9400    -0.0040    -0.9340 ha         1 71L       0.120000
     15 H6           3.9070    -0.5830     2.1010 hc         1 71L       0.010033
     16 H7           3.9580    -0.4350     0.3390 hc         1 71L       0.010033
     17 H8           3.9290     1.0180     1.3480 hc         1 71L       0.010033
     18 H9          -0.9530     0.8670    -1.6330 hn         1 71L       0.275300
     19 H10         -0.9480    -0.8670    -1.6360 hn         1 71L       0.275300
@<TRIPOS>BOND
     1     1     5 ar  
     2     1     8 ar  
     3     1     9 1   
     4     2     3 ar  
     5     2     4 1   
     6     2     8 ar  
     7     3     6 ar  
     8     3    10 1   
     9     4    11 1   
    10     4    12 1   
    11     4    13 1   
    12     5     6 ar  
    13     5    14 1   
    14     6     7 1   
    15     7    15 1   
    16     7    16 1   
    17     7    17 1   
    18     9    18 1   
    19     9    19 1   
@<TRIPOS>SUBSTRUCTURE
     1 71L         1 TEMP              0 ****  ****    0 ROOT
