@<TRIPOS>MOLECULE
molecule
   16    16     1     0     0
SMALL
bcc


@<TRIPOS>ATOM
      1 C7           0.0000     0.0000     0.0000 ca         1 71M      -0.262300
      2 C6           1.3880     0.0000     0.0000 ca         1 71M      -0.089000
      3 C5           2.0480     0.0000     1.2160 ca         1 71M      -0.263300
      4 C2          -0.6770    -0.0000     1.2040 ca         1 71M       0.438600
      5 C4           1.3030     0.0000     2.3900 ca         1 71M       0.681200
      6 N3          -0.0200    -0.0050     2.3490 nb         1 71M      -0.715000
      7 N8           1.9540     0.0000     3.6190 nv         1 71M      -1.084500
      8 H1          -0.5470    -0.0000    -0.9350 ha         1 71M       0.136000
      9 H2           1.9420    -0.0000    -0.9310 ha         1 71M       0.135000
     10 H3           3.1310     0.0020     1.2530 ha         1 71M       0.142000
     11 H4          -2.5490    -0.8770     0.6990 hc         1 71M       0.051700
     12 H5          -2.5400     0.0030     2.2330 hc         1 71M       0.051700
     13 H6          -2.5430     0.8920     0.7040 hc         1 71M       0.051700
     14 H7           2.1750    -0.8670     4.0680 hn         1 71M       0.434800
     15 H8           2.1750     0.8670     4.0680 hn         1 71M       0.434800
     16 C1          -2.1830     0.0050     1.2100 c3         1 71M      -0.142400
@<TRIPOS>BOND
     1     2     1 ar  
     2     2     3 ar  
     3     1     4 ar  
     4     3     5 ar  
     5     4    16 1   
     6     4     6 ar  
     7     5     6 ar  
     8     5     7 1   
     9     1     8 1   
    10     2     9 1   
    11     3    10 1   
    12    16    11 1   
    13    16    12 1   
    14    16    13 1   
    15     7    14 1   
    16     7    15 1   
@<TRIPOS>SUBSTRUCTURE
     1 71M         1 TEMP              0 ****  ****    0 ROOT
