@<TRIPOS>MOLECULE
71M
   16    16     1     0     0
SMALL
bcc


@<TRIPOS>ATOM
      1 C7           0.0000     0.0000     0.0000 ca         1 71M      -0.226300
      2 C6           1.3880     0.0000     0.0000 ca         1 71M      -0.063000
      3 C5           2.0480     0.0000     1.2160 ca         1 71M      -0.231300
      4 C2          -0.6770    -0.0000     1.2040 ca         1 71M       0.381600
      5 C4           1.3030     0.0000     2.3900 ca         1 71M       0.499200
      6 N3          -0.0200    -0.0050     2.3490 nb         1 71M      -0.586000
      7 N8           1.9540     0.0000     3.6190 nv         1 71M      -0.660500
      8 H1          -0.5470    -0.0000    -0.9350 ha         1 71M       0.114000
      9 H2           1.9420    -0.0000    -0.9310 ha         1 71M       0.106000
     10 H3           3.1310     0.0020     1.2530 ha         1 71M       0.117000
     11 H4          -2.5490    -0.8770     0.6990 hc         1 71M       0.013367
     12 H5          -2.5400     0.0030     2.2330 hc         1 71M       0.013367
     13 H6          -2.5430     0.8920     0.7040 hc         1 71M       0.013367
     14 H7           2.1750    -0.8670     4.0680 hn         1 71M       0.275800
     15 H8           2.1750     0.8670     4.0680 hn         1 71M       0.275800
     16 C1          -2.1830     0.0050     1.2100 c3         1 71M      -0.042400
@<TRIPOS>BOND
     1     1     2 ar  
     2     1     4 ar  
     3     1     8 1   
     4     2     3 ar  
     5     2     9 1   
     6     3     5 ar  
     7     3    10 1   
     8     4     6 ar  
     9     4    16 1   
    10     5     6 ar  
    11     5     7 1   
    12     7    14 1   
    13     7    15 1   
    14    11    16 1   
    15    12    16 1   
    16    13    16 1   
@<TRIPOS>SUBSTRUCTURE
     1 71M         1 TEMP              0 ****  ****    0 ROOT
