@<TRIPOS>MOLECULE
molecule
   20    21     1     0     0
SMALL
bcc


@<TRIPOS>ATOM
      1 F3           0.0000     0.0000     0.0000 f          1 71N      -0.208300
      2 F1           1.8640     0.0000     1.3190 f          1 71N      -0.208300
      3 F2           1.8650    -1.1430    -0.6590 f          1 71N      -0.208300
      4 C12          1.9410     3.1980    -1.6340 ca         1 71N       0.088400
      5 C11          1.6790     4.4690    -2.1520 ca         1 71N      -0.077000
      6 C8           4.2410     3.3860    -2.3600 ca         1 71N      -0.131000
      7 C7           3.2340     2.6580    -1.7420 ca         1 71N      -0.080200
      8 C9           3.9730     4.6380    -2.8670 ca         1 71N      -0.111000
      9 C10          2.6940     5.1820    -2.7640 ca         1 71N       0.146600
     10 C4           1.9010     1.2310    -0.7110 cc         1 71N       0.324800
     11 C1           1.3980     0.0000     0.0000 c3         1 71N       0.635600
     12 N5           3.1760     1.4110    -1.1470 na         1 71N      -0.241300
     13 N6           1.1770     2.2720    -0.9990 nd         1 71N      -0.544100
     14 H1           0.6860     4.8950    -2.0740 ha         1 71N       0.154000
     15 H2           5.2380     2.9690    -2.4430 ha         1 71N       0.132000
     16 H3           4.7620     5.2040    -3.3480 ha         1 71N       0.143000
     17 H4           3.9580     0.8210    -0.9400 hn         1 71N       0.312700
     18 H6           2.5480     7.2640    -2.7050 hn         1 71N       0.429800
     19 H7           2.1260     6.5560    -4.2300 hn         1 71N       0.429800
     20 N13          2.4340     6.4550    -3.2830 nv         1 71N      -0.987200
@<TRIPOS>BOND
     1     3    11 1   
     2     1    11 1   
     3    11     2 1   
     4    11    10 1   
     5    10    12 1   
     6    10    13 2   
     7    12     7 1   
     8    13     4 1   
     9     7     4 ar  
    10     7     6 ar  
    11     4     5 ar  
    12     6     8 ar  
    13     5     9 ar  
    14     8     9 ar  
    15     9    20 1   
    16     5    14 1   
    17     6    15 1   
    18     8    16 1   
    19    12    17 1   
    20    20    18 1   
    21    20    19 1   
@<TRIPOS>SUBSTRUCTURE
     1 71N         1 TEMP              0 ****  ****    0 ROOT
