@<TRIPOS>MOLECULE
molecule
   54    56     1     0     0
SMALL
bcc


@<TRIPOS>ATOM
      1 CBA          0.0000     0.0000     0.0000 c3         1 71P       0.133700
      2 OAW          1.4280     0.0000     0.0000 os         1 71P      -0.344900
      3 CAP          2.0460     0.0000     1.2110 ca         1 71P       0.148100
      4 CAQ          2.2940     1.2040     1.8770 ca         1 71P      -0.115800
      5 CAR          1.8650     2.4930     1.2560 cc         1 71P      -0.013200
      6 CAX          2.2090     2.6880    -0.0590 cd         1 71P      -0.066000
      7 CAY          2.0230     3.7130    -0.9090 cd         1 71P      -0.133000
      8 CAZ          1.4330     4.9200    -0.6740 cc         1 71P      -0.027600
      9 SBB          1.3570     6.0580    -2.0160 ss         1 71P      -0.146700
     10 CBC          2.1720     5.0800    -3.3030 c3         1 71P      -0.061000
     11 CAU          0.8850     5.3270     0.5420 c          1 71P       0.571500
     12 OAV          0.4590     6.4740     0.5750 o          1 71P      -0.586100
     13 CAT          0.7600     4.6150     1.6980 cd         1 71P      -0.221200
     14 CAS          1.1490     3.3790     2.0600 cc         1 71P      -0.006200
     15 CAH          0.7620     2.9320     3.4540 c3         1 71P       0.143900
     16 NAI         -0.3480     3.7630     3.9290 ns         1 71P      -0.588900
     17 CAJ         -1.6170     3.4410     3.6080 c          1 71P       0.660100
     18 OAK         -1.8400     2.4630     2.9240 o          1 71P      -0.609100
     19 CAL         -2.7580     4.2950     4.0960 c3         1 71P      -0.170100
     20 CAG          1.9190     3.0520     4.4260 c3         1 71P      -0.083400
     21 CAF          3.2070     2.5090     3.8140 c3         1 71P      -0.033100
     22 CAE          2.9260     1.2040     3.1150 ca         1 71P      -0.033300
     23 CAD          3.3040     0.0110     3.6960 ca         1 71P      -0.220000
     24 CAC          3.0610    -1.1900     3.0400 ca         1 71P       0.137100
     25 OAB          3.4310    -2.3630     3.6180 os         1 71P      -0.312900
     26 CAA          4.0760    -2.2840     4.8910 c3         1 71P       0.125700
     27 CAO          2.4290    -1.1980     1.8020 ca         1 71P       0.062100
     28 OAN          2.1970    -2.3770     1.1620 os         1 71P      -0.325900
     29 CAM          1.0170    -3.0940     1.5310 c3         1 71P       0.133700
     30 H1          -0.3610    -0.8010    -0.6340 h1         1 71P       0.042367
     31 H2          -0.3610    -0.1490     1.0100 h1         1 71P       0.042367
     32 H3          -0.3610     0.9490    -0.3760 h1         1 71P       0.042367
     33 H4           2.7360     1.8500    -0.4990 ha         1 71P       0.145000
     34 H5           2.3920     3.5600    -1.9160 ha         1 71P       0.136000
     35 H6           2.2390     5.6650    -4.2120 h1         1 71P       0.068700
     36 H7           3.1670     4.8090    -2.9740 h1         1 71P       0.068700
     37 H8           1.5960     4.1820    -3.4930 h1         1 71P       0.068700
     38 H9           0.2440     5.1530     2.4840 ha         1 71P       0.149000
     39 H10          0.4430     1.8980     3.4150 h1         1 71P       0.097700
     40 H11         -0.1670     4.5440     4.5270 hn         1 71P       0.317500
     41 H12         -3.6450     4.0810     3.5110 hc         1 71P       0.063700
     42 H13         -2.4990     5.3410     3.9880 hc         1 71P       0.063700
     43 H14         -2.9520     4.0760     5.1390 hc         1 71P       0.063700
     44 H15          1.6860     2.4710     5.3100 hc         1 71P       0.053700
     45 H16          2.0640     4.1000     4.6580 hc         1 71P       0.053700
     46 H17          3.9220     2.3310     4.6090 hc         1 71P       0.062200
     47 H18          3.5750     3.2220     3.0860 hc         1 71P       0.062200
     48 H19          3.8240     0.0130     4.6470 ha         1 71P       0.142000
     49 H20          4.3630    -3.2780     5.2120 h1         1 71P       0.043367
     50 H21          3.3940    -1.8530     5.6150 h1         1 71P       0.043367
     51 H22          4.9580    -1.6610     4.8100 h1         1 71P       0.043367
     52 H23          1.2950    -4.0380     1.9820 h1         1 71P       0.035700
     53 H24          0.4170    -3.2780     0.6480 h1         1 71P       0.035700
     54 H25          0.4460    -2.5080     2.2410 h1         1 71P       0.035700
@<TRIPOS>BOND
     1    26    25 1   
     2    25    24 1   
     3    29    28 1   
     4    28    27 1   
     5    24    27 ar  
     6    24    23 ar  
     7    27     3 ar  
     8    23    22 ar  
     9     3     2 1   
    10     3     4 ar  
    11     2     1 1   
    12    22     4 ar  
    13    22    21 1   
    14     4     5 1   
    15    21    20 1   
    16     6     5 2   
    17     6     7 1   
    18     5    14 1   
    19    20    15 1   
    20     7     8 2   
    21    14    15 1   
    22    14    13 2   
    23    15    16 1   
    24    18    17 2   
    25    16    17 1   
    26     8    11 1   
    27     8     9 1   
    28    17    19 1   
    29    13    11 1   
    30    11    12 2   
    31     9    10 1   
    32     1    30 1   
    33     1    31 1   
    34     1    32 1   
    35     6    33 1   
    36     7    34 1   
    37    10    35 1   
    38    10    36 1   
    39    10    37 1   
    40    13    38 1   
    41    15    39 1   
    42    16    40 1   
    43    19    41 1   
    44    19    42 1   
    45    19    43 1   
    46    20    44 1   
    47    20    45 1   
    48    21    46 1   
    49    21    47 1   
    50    23    48 1   
    51    26    49 1   
    52    26    50 1   
    53    26    51 1   
    54    29    52 1   
    55    29    53 1   
    56    29    54 1   
@<TRIPOS>SUBSTRUCTURE
     1 71P         1 TEMP              0 ****  ****    0 ROOT
