@<TRIPOS>MOLECULE
molecule
   57    59     1     0     0
SMALL
bcc


@<TRIPOS>ATOM
      1 N22          0.0000     0.0000     0.0000 nv         1 71S      -0.995500
      2 C22          1.3900     0.0000     0.0000 ca         1 71S       0.708200
      3 C23          2.0790     0.0000     1.2090 ca         1 71S      -0.324300
      4 C24          3.4620    -0.0000     1.1950 ca         1 71S       0.008700
      5 C27          4.2460    -0.0010     2.4830 c3         1 71S      -0.058800
      6 C25          4.1120    -0.0010    -0.0320 ca         1 71S      -0.340300
      7 N21          2.0470    -0.0060    -1.1500 nb         1 71S      -0.822000
      8 C26          3.3660    -0.0010    -1.1930 ca         1 71S       0.413600
      9 C28          4.0660    -0.0020    -2.5280 c3         1 71S      -0.133700
     10 C29          3.5690    -1.1830    -3.3630 c3         1 71S       0.040600
     11 C15          4.1770    -1.1150    -4.7400 ca         1 71S      -0.263600
     12 C14          5.5490    -1.1510    -4.9030 ca         1 71S       0.438200
     13 C12          5.3460    -0.9960    -7.1930 ca         1 71S       0.450200
     14 C16          3.3650    -1.0210    -5.8610 ca         1 71S      -0.074000
     15 C11          3.9680    -0.9600    -7.1090 ca         1 71S      -0.191600
     16 C09          3.1290    -0.8520    -8.3560 c3         1 71S      -0.034100
     17 C08          2.8040    -2.2540    -8.8740 c3         1 71S      -0.116700
     18 C06          1.9640    -2.1460   -10.1230 ca         1 71S       0.464600
     19 N01          0.8410    -1.4550   -10.0950 nb         1 71S      -0.784000
     20 C02          0.0740    -1.3320   -11.1660 ca         1 71S       0.714200
     21 N02         -1.1020    -0.5950   -11.0910 nv         1 71S      -1.011500
     22 C03          0.4340    -1.9360   -12.3670 ca         1 71S      -0.319300
     23 C04          1.6060    -2.6670   -12.4270 ca         1 71S       0.002700
     24 C05          2.3850    -2.7670   -11.2810 ca         1 71S      -0.306300
     25 C07          2.0320    -3.3370   -13.7090 c3         1 71S      -0.052800
     26 C18          3.9820    -2.4940    -2.6890 c3         1 71S      -0.046200
     27 N11          6.0870    -1.0900    -6.1060 nb         1 71S      -0.669000
     28 H221        -0.5000     0.0750    -0.8630 hn         1 71S       0.454800
     29 H222        -0.5000    -0.0780     0.8630 hn         1 71S       0.454800
     30 H23          1.5460     0.1760     2.1350 ha         1 71S       0.164000
     31 H271         5.0750    -0.6930     2.4000 hc         1 71S       0.063700
     32 H272         4.6250     0.9960     2.6750 hc         1 71S       0.063700
     33 H273         3.6010    -0.3050     3.2980 hc         1 71S       0.063700
     34 H25          5.1940     0.0010    -0.0770 ha         1 71S       0.158000
     35 H281         5.1350    -0.0910    -2.3750 hc         1 71S       0.094700
     36 H282         3.8520     0.9240    -3.0480 hc         1 71S       0.094700
     37 H29          2.4900    -1.1420    -3.4420 hc         1 71S       0.070700
     38 H181         2.9560    -2.3410    -3.0020 hx         1 71S       0.138700
     39 H182         4.2710    -3.3720    -3.2530 hx         1 71S       0.138700
     40 H14          6.1900    -1.2280    -4.0330 h4         1 71S       0.026100
     41 H16          2.2860    -0.9950    -5.7640 ha         1 71S       0.147000
     42 HA1          3.8750    -2.2390    -0.6730 hn         1 71S       0.452800
     43 HB2          3.1130    -3.5820    -1.2060 hn         1 71S       0.452800
     44 H12          5.8250    -0.9490    -8.1640 h4         1 71S       0.045100
     45 H091         2.2090    -0.3280    -8.1280 hc         1 71S       0.072200
     46 H092         3.6780    -0.3050    -9.1140 hc         1 71S       0.072200
     47 H081         2.2550    -2.8010    -8.1170 hc         1 71S       0.052700
     48 H082         3.7240    -2.7780    -9.1020 hc         1 71S       0.052700
     49 H05          3.3090    -3.3320   -11.2950 ha         1 71S       0.137000
     50 H021        -1.6830    -0.4950   -11.9010 hn         1 71S       0.441300
     51 H022        -1.3710    -0.1690   -10.2270 hn         1 71S       0.441300
     52 H03         -0.1960    -1.8360   -13.2420 ha         1 71S       0.142000
     53 H071         2.9750    -3.8470   -13.5540 hc         1 71S       0.051700
     54 H072         1.2790    -4.0560   -14.0080 hc         1 71S       0.051700
     55 H073         2.1480    -2.5910   -14.4850 hc         1 71S       0.051700
     56 N18          3.2950    -2.6170    -1.3960 nz         1 71S      -0.801600
     57 H183         2.4350    -2.1060    -1.4250 hn         1 71S       0.452800
@<TRIPOS>BOND
     1     1     2 1   
     2     2     3 ar  
     3     2     7 ar  
     4     3     4 ar  
     5     4     5 1   
     6     4     6 ar  
     7     6     8 ar  
     8     7     8 ar  
     9     8     9 1   
    10     9    10 1   
    11    10    11 1   
    12    10    26 1   
    13    11    12 ar  
    14    11    14 ar  
    15    12    27 ar  
    16    56    26 1   
    17    13    15 ar  
    18    13    27 ar  
    19    14    15 ar  
    20    15    16 1   
    21    16    17 1   
    22    17    18 1   
    23    18    19 ar  
    24    18    24 ar  
    25    19    20 ar  
    26    20    21 1   
    27    20    22 ar  
    28    22    23 ar  
    29    23    24 ar  
    30    23    25 1   
    31     1    28 1   
    32     1    29 1   
    33     3    30 1   
    34     5    31 1   
    35     5    32 1   
    36     5    33 1   
    37     6    34 1   
    38     9    35 1   
    39     9    36 1   
    40    10    37 1   
    41    26    38 1   
    42    26    39 1   
    43    12    40 1   
    44    14    41 1   
    45    56    42 1   
    46    56    43 1   
    47    13    44 1   
    48    16    45 1   
    49    16    46 1   
    50    17    47 1   
    51    17    48 1   
    52    24    49 1   
    53    21    50 1   
    54    21    51 1   
    55    22    52 1   
    56    25    53 1   
    57    25    54 1   
    58    25    55 1   
    59    57    56 1   
@<TRIPOS>SUBSTRUCTURE
     1 71S         1 TEMP              0 ****  ****    0 ROOT
