@<TRIPOS>MOLECULE
molecule
   53    57     1     0     0
SMALL
bcc


@<TRIPOS>ATOM
      1 C21          0.0000     0.0000     0.0000 ca         1 71T      -0.128500
      2 C8           6.0910    -1.5040    -3.6810 cc         1 71T      -0.101700
      3 C6           4.2660     0.1860    -2.3170 c3         1 71T       0.100000
      4 C5           3.5400     0.0030    -0.9810 c3         1 71T       0.147300
      5 C2           1.3900    -0.0010     2.3990 ca         1 71T      -0.165000
      6 C10          8.2660    -2.2110    -3.3200 cd         1 71T      -0.089300
      7 C11          8.4850    -0.8540    -3.2650 cc         1 71T      -0.015100
      8 C12          9.8000    -0.2070    -3.0400 ca         1 71T       0.073000
      9 C13          9.8630     1.1280    -2.6440 ca         1 71T      -0.137000
     10 C18          9.3730    -3.2390    -3.1220 c3         1 71T      -0.132300
     11 C19          2.3340    -0.9930    -3.4360 c3         1 71T       0.100000
     12 C17         10.9790    -0.9210    -3.2530 ca         1 71T      -0.266500
     13 C15         12.2550     0.9970    -2.6050 ca         1 71T      -0.142000
     14 N            2.0890     0.0020    -1.2110 nh         1 71T      -0.595000
     15 C           -2.1040    -0.0020     3.4990 c3         1 71T       0.128700
     16 C1           0.0030    -0.0010     2.3970 ca         1 71T       0.120100
     17 N1           3.7860    -0.8400    -3.2550 n          1 71T      -0.489800
     18 S1           6.9700     0.0070    -3.5110 ss         1 71T      -0.057800
     19 C3           2.0820     0.0000     1.2030 ca         1 71T      -0.128500
     20 C4           1.3890     0.0000     0.0000 ca         1 71T       0.062600
     21 C7           4.6530    -1.6200    -3.9320 c          1 71T       0.704700
     22 C9           6.9510    -2.5510    -3.5490 cd         1 71T      -0.076000
     23 C14         11.0900     1.7220    -2.4240 ca         1 71T      -0.075000
     24 C16         12.1980    -0.3220    -3.0210 ca         1 71T      -0.015000
     25 C20          1.6840    -1.1310    -2.0540 c3         1 71T       0.147300
     26 C22         -0.6900    -0.0010     1.1960 ca         1 71T      -0.165000
     27 S           10.9060    -2.5820    -3.8400 sy         1 71T       1.200300
     28 H20         -0.5420     0.0000    -0.9380 ha         1 71T       0.138000
     29 H7           5.3330     0.0720    -2.1700 h1         1 71T       0.067700
     30 H8           4.0510     1.1710    -2.7150 h1         1 71T       0.067700
     31 H6           3.7990     0.8170    -0.3150 h1         1 71T       0.051950
     32 H5           3.8350    -0.9410    -0.5370 h1         1 71T       0.051950
     33 H3           1.9310    -0.0010     3.3380 ha         1 71T       0.141500
     34 H10          8.9510     1.6960    -2.5020 ha         1 71T       0.136000
     35 H15          9.5160    -3.4200    -2.0640 h1         1 71T       0.113700
     36 H16          2.1330    -1.8810    -4.0220 h1         1 71T       0.067700
     37 H17          1.9370    -0.1200    -3.9390 h1         1 71T       0.067700
     38 H12         13.2150     1.4680    -2.4310 ha         1 71T       0.141000
     39 H           -2.5190    -0.0020     4.5000 h1         1 71T       0.041033
     40 H1          -2.4340    -0.8890     2.9720 h1         1 71T       0.041033
     41 H2          -2.4410     0.8800     2.9690 h1         1 71T       0.041033
     42 H4           3.1660     0.0000     1.2040 ha         1 71T       0.138000
     43 H9           6.6240    -3.5810    -3.6190 ha         1 71T       0.169000
     44 H11         11.1400     2.7540    -2.0990 ha         1 71T       0.138000
     45 H13         13.1130    -0.8850    -3.1610 ha         1 71T       0.156000
     46 H18          0.6060    -1.1330    -2.1620 h1         1 71T       0.051950
     47 H19          2.0090    -2.0570    -1.5940 h1         1 71T       0.051950
     48 H21         -1.7740    -0.0010     1.1970 ha         1 71T       0.141500
     49 H14          9.1040    -4.1620    -3.6220 h1         1 71T       0.113700
     50 O           -0.6780    -0.0010     3.5750 os         1 71T      -0.329900
     51 O1          12.0390    -3.2110    -3.2570 o          1 71T      -0.607300
     52 O2          10.7810    -2.4520    -5.2490 o          1 71T      -0.607300
     53 O3           4.2410    -2.4190    -4.7510 o          1 71T      -0.587100
@<TRIPOS>BOND
     1     1    20 ar  
     2     1    26 ar  
     3     2    18 1   
     4     2    21 1   
     5     2    22 2   
     6     3     4 1   
     7     3    17 1   
     8     4    14 1   
     9     5    16 ar  
    10     5    19 ar  
    11     6     7 2   
    12     6    10 1   
    13     6    22 1   
    14     7     8 1   
    15     7    18 1   
    16     8     9 ar  
    17     8    12 ar  
    18     9    23 ar  
    19    10    27 1   
    20    11    17 1   
    21    11    25 1   
    22    12    24 ar  
    23    12    27 1   
    24    13    23 ar  
    25    13    24 ar  
    26    14    20 1   
    27    14    25 1   
    28    15    50 1   
    29    50    16 1   
    30    16    26 ar  
    31    17    21 1   
    32    51    27 2   
    33    52    27 2   
    34    19    20 ar  
    35    53    21 2   
    36     1    28 1   
    37     3    29 1   
    38     3    30 1   
    39     4    31 1   
    40     4    32 1   
    41     5    33 1   
    42     9    34 1   
    43    10    35 1   
    44    10    49 1   
    45    11    36 1   
    46    11    37 1   
    47    13    38 1   
    48    15    39 1   
    49    15    40 1   
    50    15    41 1   
    51    19    42 1   
    52    22    43 1   
    53    23    44 1   
    54    24    45 1   
    55    25    46 1   
    56    25    47 1   
    57    26    48 1   
@<TRIPOS>SUBSTRUCTURE
     1 71T         1 TEMP              0 ****  ****    0 ROOT
