@<TRIPOS>MOLECULE
71T
   53    57     1     0     0
SMALL
bcc


@<TRIPOS>ATOM
      1 C21          0.0000     0.0000     0.0000 ca         1 71T      -0.102500
      2 C8           6.0910    -1.5040    -3.6810 cc         1 71T      -0.058700
      3 C6           4.2660     0.1860    -2.3170 c3         1 71T       0.028500
      4 C5           3.5400     0.0030    -0.9810 c3         1 71T       0.120800
      5 C2           1.3900    -0.0010     2.3990 ca         1 71T      -0.148500
      6 C10          8.2660    -2.2110    -3.3200 cd         1 71T      -0.089300
      7 C11          8.4850    -0.8540    -3.2650 cc         1 71T       0.049900
      8 C12          9.8000    -0.2070    -3.0400 ca         1 71T       0.078000
      9 C13          9.8630     1.1280    -2.6440 ca         1 71T      -0.118000
     10 C18          9.3730    -3.2390    -3.1220 c3         1 71T       0.088700
     11 C19          2.3340    -0.9930    -3.4360 c3         1 71T       0.028500
     12 C17         10.9790    -0.9210    -3.2530 ca         1 71T      -0.126500
     13 C15         12.2550     0.9970    -2.6050 ca         1 71T      -0.122000
     14 N            2.0890     0.0020    -1.2110 nh         1 71T      -0.359000
     15 C           -2.1040    -0.0020     3.4990 c3         1 71T       0.244700
     16 C1           0.0030    -0.0010     2.3970 ca         1 71T       0.131100
     17 N1           3.7860    -0.8400    -3.2550 n          1 71T      -0.145800
     18 S1           6.9700     0.0070    -3.5110 ss         1 71T      -0.198800
     19 C3           2.0820     0.0000     1.2030 ca         1 71T      -0.102500
     20 C4           1.3890     0.0000     0.0000 ca         1 71T      -0.023400
     21 C7           4.6530    -1.6200    -3.9320 c          1 71T       0.642700
     22 C9           6.9510    -2.5510    -3.5490 cd         1 71T      -0.046000
     23 C14         11.0900     1.7220    -2.4240 ca         1 71T      -0.049000
     24 C16         12.1980    -0.3220    -3.0210 ca         1 71T       0.022000
     25 C20          1.6840    -1.1310    -2.0540 c3         1 71T       0.120800
     26 C22         -0.6900    -0.0010     1.1960 ca         1 71T      -0.148500
     27 S           10.9060    -2.5820    -3.8400 sy         1 71T       0.880300
     28 H20         -0.5420     0.0000    -0.9380 ha         1 71T       0.116500
     29 H7           5.3330     0.0720    -2.1700 h1         1 71T       0.045450
     30 H8           4.0510     1.1710    -2.7150 h1         1 71T       0.045450
     31 H6           3.7990     0.8170    -0.3150 h1         1 71T       0.026450
     32 H5           3.8350    -0.9410    -0.5370 h1         1 71T       0.026450
     33 H3           1.9310    -0.0010     3.3380 ha         1 71T       0.118500
     34 H10          8.9510     1.6960    -2.5020 ha         1 71T       0.116000
     35 H15          9.5160    -3.4200    -2.0640 h1         1 71T       0.076700
     36 H16          2.1330    -1.8810    -4.0220 h1         1 71T       0.045450
     37 H17          1.9370    -0.1200    -3.9390 h1         1 71T       0.045450
     38 H12         13.2150     1.4680    -2.4310 ha         1 71T       0.110000
     39 H           -2.5190    -0.0020     4.5000 h1         1 71T      -0.002633
     40 H1          -2.4340    -0.8890     2.9720 h1         1 71T      -0.002633
     41 H2          -2.4410     0.8800     2.9690 h1         1 71T      -0.002633
     42 H4           3.1660     0.0000     1.2040 ha         1 71T       0.116500
     43 H9           6.6240    -3.5810    -3.6190 ha         1 71T       0.136000
     44 H11         11.1400     2.7540    -2.0990 ha         1 71T       0.105000
     45 H13         13.1130    -0.8850    -3.1610 ha         1 71T       0.126000
     46 H18          0.6060    -1.1330    -2.1620 h1         1 71T       0.026450
     47 H19          2.0090    -2.0570    -1.5940 h1         1 71T       0.026450
     48 H21         -1.7740    -0.0010     1.1970 ha         1 71T       0.118500
     49 H14          9.1040    -4.1620    -3.6220 h1         1 71T       0.076700
     50 O           -0.6780    -0.0010     3.5750 os         1 71T      -0.307900
     51 O1          12.0390    -3.2110    -3.2570 o          1 71T      -0.577300
     52 O2          10.7810    -2.4520    -5.2490 o          1 71T      -0.577300
     53 O3           4.2410    -2.4190    -4.7510 o          1 71T      -0.631100
@<TRIPOS>BOND
     1     1    20 ar  
     2     1    26 ar  
     3     1    28 1   
     4     2    18 1   
     5     2    21 1   
     6     2    22 2   
     7     3     4 1   
     8     3    17 1   
     9     3    29 1   
    10     3    30 1   
    11     4    14 1   
    12     4    31 1   
    13     4    32 1   
    14     5    16 ar  
    15     5    19 ar  
    16     5    33 1   
    17     6     7 2   
    18     6    10 1   
    19     6    22 1   
    20     7     8 1   
    21     7    18 1   
    22     8     9 ar  
    23     8    12 ar  
    24     9    23 ar  
    25     9    34 1   
    26    10    27 1   
    27    10    35 1   
    28    10    49 1   
    29    11    17 1   
    30    11    25 1   
    31    11    36 1   
    32    11    37 1   
    33    12    24 ar  
    34    12    27 1   
    35    13    23 ar  
    36    13    24 ar  
    37    13    38 1   
    38    14    20 1   
    39    14    25 1   
    40    15    39 1   
    41    15    40 1   
    42    15    41 1   
    43    15    50 1   
    44    16    26 ar  
    45    16    50 1   
    46    17    21 1   
    47    19    20 ar  
    48    19    42 1   
    49    21    53 2   
    50    22    43 1   
    51    23    44 1   
    52    24    45 1   
    53    25    46 1   
    54    25    47 1   
    55    26    48 1   
    56    27    51 2   
    57    27    52 2   
@<TRIPOS>SUBSTRUCTURE
     1 71T         1 TEMP              0 ****  ****    0 ROOT
