@<TRIPOS>MOLECULE
71U
   64    66     1     0     0
SMALL
bcc


@<TRIPOS>ATOM
      1 C4           0.0000     0.0000     0.0000 c3         1 71U       0.003100
      2 C5           1.5300     0.0000     0.0000 c3         1 71U      -0.027400
      3 C6           2.0400     0.0000     1.4420 c3         1 71U       0.003100
      4 N1          -2.6800     4.8200     2.8190 n          1 71U      -0.088800
      5 C7           1.5300     1.2510     2.1630 c3         1 71U      -0.100900
      6 C8          -2.5480     3.7240     3.5910 c          1 71U       0.589100
      7 C9          -2.3640     4.9040     1.3820 c3         1 71U       0.015000
      8 C10         -2.0830     6.4050     1.1240 c3         1 71U      -0.015400
      9 C11         -3.1230     7.0810     2.0540 c3         1 71U      -0.026400
     10 C12         -3.1710     6.1310     3.2700 c3         1 71U      -0.041300
     11 N3          -8.7160     8.0660     2.4440 nz         1 71U       0.050400
     12 C13         -4.5880     6.0110     3.7710 c          1 71U       0.572100
     13 C14         -6.6150     6.9850     4.7090 c3         1 71U       0.119300
     14 C15         -7.1070     8.3380     5.1540 ca         1 71U      -0.108300
     15 O1          -2.8400     3.7700     4.7670 o          1 71U      -0.606100
     16 C           -2.0350     2.4390     2.9920 c3         1 71U      -0.074500
     17 C1          -0.5100     2.5000     2.8830 c3         1 71U      -0.182400
     18 C2          -0.0000     1.2510     2.1630 c3         1 71U       0.063300
     19 C3          -0.5100     1.2500     0.7200 c3         1 71U      -0.100900
     20 N           -2.4190     1.3110     3.8520 nz         1 71U       0.032400
     21 O           -5.1430     4.9320     3.7670 o          1 71U      -0.644100
     22 C20         -7.5520     9.2520     4.2180 ca         1 71U      -0.209300
     23 C21         -7.5450     8.8970     2.7540 c3         1 71U       0.028100
     24 C19         -8.0050    10.4940     4.6250 ca         1 71U      -0.043000
     25 C18         -8.0120    10.8210     5.9680 ca         1 71U      -0.064000
     26 C17         -7.5670     9.9050     6.9040 ca         1 71U      -0.015600
     27 Cl          -7.5750    10.3150     8.5910 cl         1 71U       0.085600
     28 C16         -7.1200     8.6620     6.4980 ca         1 71U      -0.063000
     29 H1          -0.3600     0.0020    -1.0220 hc         1 71U       0.022450
     30 H2          -0.3600    -0.8830     0.5140 hc         1 71U       0.022450
     31 H3           1.8900     0.8860    -0.5090 hc         1 71U       0.033200
     32 H4           1.8900    -0.8860    -0.5090 hc         1 71U       0.033200
     33 H5           1.6760    -0.8830     1.9530 hc         1 71U       0.022450
     34 H6           3.1230     0.0020     1.4410 hc         1 71U       0.022450
     35 H7           1.8900     2.1340     1.6480 hc         1 71U       0.032450
     36 H8           1.8900     1.2500     3.1840 hc         1 71U       0.032450
     37 H9          -4.7650     7.9820     4.2670 hn         1 71U       0.194500
     38 H10         -1.4850     4.3130     1.1560 h1         1 71U       0.031700
     39 H11         -3.2100     4.5730     0.7910 h1         1 71U       0.031700
     40 H12         -2.2700     6.6590     0.0880 hc         1 71U       0.047200
     41 H13         -1.0740     6.6650     1.4200 hc         1 71U       0.047200
     42 H14         -2.7850     8.0660     2.3530 hc         1 71U       0.031200
     43 H15         -4.0920     7.1310     1.5710 hc         1 71U       0.031200
     44 H16         -2.5300     6.5100     4.0560 h1         1 71U       0.069700
     45 H17         -8.1380     7.3450     2.0610 hn         1 71U       0.236800
     46 H18         -9.3130     8.4850     1.7580 hn         1 71U       0.236800
     47 H20         -6.6440     6.2970     5.5460 h1         1 71U       0.019200
     48 H21         -7.2490     6.6130     3.9140 h1         1 71U       0.019200
     49 H22         -2.4620     2.3040     2.0060 hx         1 71U       0.073700
     50 H23         -1.1220     2.5320     1.9900 hc         1 71U       0.088700
     51 H24          0.0320     3.4370     2.8280 hc         1 71U       0.088700
     52 H25         -0.3590     0.3640     2.6710 hc         1 71U      -0.010300
     53 H26         -0.9010     0.5150     1.4140 hc         1 71U       0.032450
     54 H27         -1.4010     1.7750     0.3990 hc         1 71U       0.032450
     55 H28         -2.6870     0.5340     3.2820 hn         1 71U       0.241133
     56 H29         -1.6420     1.0510     4.4270 hn         1 71U       0.241133
     57 H31         -6.6410     8.3470     2.5200 hx         1 71U       0.080700
     58 H32         -7.5790     9.8030     2.1620 hx         1 71U       0.080700
     59 H33         -8.3540    11.2100     3.8910 ha         1 71U       0.120000
     60 H34         -8.3670    11.7940     6.2860 ha         1 71U       0.144000
     61 H35         -6.7710     7.9450     7.2310 ha         1 71U       0.139000
     62 N2          -5.2380     7.1010     4.2220 ns         1 71U      -0.199900
     63 H331        -9.2040     7.7700     3.2660 hn         1 71U       0.236800
     64 HN3         -3.1830     1.5840     4.4380 hn         1 71U       0.241133
@<TRIPOS>BOND
     1     1     2 1   
     2     1    19 1   
     3     1    29 1   
     4     1    30 1   
     5     2     3 1   
     6     2    31 1   
     7     2    32 1   
     8     3     5 1   
     9     3    33 1   
    10     3    34 1   
    11     4     6 1   
    12     4     7 1   
    13     4    10 1   
    14     5    18 1   
    15     5    35 1   
    16     5    36 1   
    17     6    15 2   
    18     6    16 1   
    19     7     8 1   
    20     7    38 1   
    21     7    39 1   
    22     8     9 1   
    23     8    40 1   
    24     8    41 1   
    25     9    10 1   
    26     9    42 1   
    27     9    43 1   
    28    10    12 1   
    29    10    44 1   
    30    11    23 1   
    31    11    45 1   
    32    11    46 1   
    33    11    63 1   
    34    12    21 2   
    35    12    62 1   
    36    13    14 1   
    37    13    47 1   
    38    13    48 1   
    39    13    62 1   
    40    14    22 ar  
    41    14    28 ar  
    42    16    17 1   
    43    16    20 1   
    44    16    49 1   
    45    17    18 1   
    46    17    50 1   
    47    17    51 1   
    48    18    19 1   
    49    18    52 1   
    50    19    53 1   
    51    19    54 1   
    52    20    55 1   
    53    20    56 1   
    54    20    64 1   
    55    22    23 1   
    56    22    24 ar  
    57    23    57 1   
    58    23    58 1   
    59    24    25 ar  
    60    24    59 1   
    61    25    26 ar  
    62    25    60 1   
    63    26    27 1   
    64    26    28 ar  
    65    28    61 1   
    66    37    62 1   
@<TRIPOS>SUBSTRUCTURE
     1 71U         1 TEMP              0 ****  ****    0 ROOT
