@<TRIPOS>MOLECULE
71V
   36    38     1     0     0
SMALL
bcc


@<TRIPOS>ATOM
      1 N1           0.0000     0.0000     0.0000 nb         1 71V      -0.735000
      2 N2           1.9960     0.0020    -1.2130 nv         1 71V      -0.533500
      3 C8           0.7390    -0.0030     4.3990 cc         1 71V       0.305700
      4 O3A          2.5950    -0.0160    10.1360 o          1 71V      -0.750833
      5 PA           3.9490    -0.8120     9.7850 p5         1 71V       0.666900
      6 O1A          5.0950    -0.1490    10.4440 o          1 71V      -0.750833
      7 O2A          3.8380    -2.3320    10.3010 o          1 71V      -0.750833
      8 C5'          4.4070     0.3940     7.4440 c3         1 71V       0.280400
      9 C4'          4.5680     0.0480     5.9630 c3         1 71V       0.135100
     10 O4'          3.3250    -0.4450     5.4380 os         1 71V      -0.351600
     11 C3'          4.9330     1.3150     5.1650 c3         1 71V       0.122100
     12 O3'          6.1980     1.1540     4.5210 oh         1 71V      -0.572800
     13 C2'          3.8010     1.4420     4.1180 c3         1 71V       0.119100
     14 O2'          4.3240     1.8330     2.8470 oh         1 71V      -0.560800
     15 C1'          3.2420    -0.0030     4.0650 c3         1 71V       0.128800
     16 N9           1.8510    -0.0020     3.6070 na         1 71V       0.219000
     17 N7          -0.3310    -0.0030     3.6600 nd         1 71V      -0.513100
     18 C5           0.0230    -0.0020     2.3510 ca         1 71V      -0.183200
     19 C4           1.4260    -0.0020     2.3030 ca         1 71V       0.272800
     20 N3           2.0330     0.0000     1.1190 nb         1 71V      -0.658000
     21 C2           1.3270     0.0000     0.0000 ca         1 71V       0.701900
     22 C6          -0.6870    -0.0010     1.1370 ca         1 71V       0.655600
     23 S           -2.4490    -0.0020     1.1240 sh         1 71V      -0.410100
     24 H1           1.4800     0.0060    -2.0700 hn         1 71V       0.267800
     25 H2           2.9970    -0.0150    -1.2320 hn         1 71V       0.267800
     26 H3           0.7470    -0.0040     5.4820 h5         1 71V       0.075800
     27 H6           5.3110     0.8700     7.8050 h1         1 71V      -0.022800
     28 H7           3.5690     1.0700     7.5680 h1         1 71V      -0.022800
     29 H8           5.3420    -0.7000     5.8370 h1         1 71V       0.039700
     30 H9           4.9400     2.1800     5.8170 h1         1 71V       0.021700
     31 H10          6.8020     1.8010     4.8490 ho         1 71V       0.378000
     32 H11          3.0400     2.1340     4.4590 h1         1 71V       0.019700
     33 H12          4.2330     2.7660     2.7420 ho         1 71V       0.373000
     34 H13          3.8600    -0.6250     3.4290 h2         1 71V       0.055700
     35 H14         -2.8830    -0.5560    -0.0020 hs         1 71V       0.172800
     36 O5'          4.1680    -0.8020     8.1890 os         1 71V      -0.463200
@<TRIPOS>BOND
     1     1    21 ar  
     2     1    22 ar  
     3     2    21 1   
     4     2    24 1   
     5     2    25 1   
     6     3    16 1   
     7     3    17 2   
     8     3    26 1   
     9     4     5 1   
    10     5     6 1   
    11     5     7 1   
    12     5    36 1   
    13     8     9 1   
    14     8    27 1   
    15     8    28 1   
    16     8    36 1   
    17     9    10 1   
    18     9    11 1   
    19     9    29 1   
    20    10    15 1   
    21    11    12 1   
    22    11    13 1   
    23    11    30 1   
    24    12    31 1   
    25    13    14 1   
    26    13    15 1   
    27    13    32 1   
    28    14    33 1   
    29    15    16 1   
    30    15    34 1   
    31    16    19 1   
    32    17    18 1   
    33    18    19 ar  
    34    18    22 ar  
    35    19    20 ar  
    36    20    21 ar  
    37    22    23 1   
    38    23    35 1   
@<TRIPOS>SUBSTRUCTURE
     1 71V         1 TEMP              0 ****  ****    0 ROOT
