@<TRIPOS>MOLECULE
molecule
   63    66     1     0     0
SMALL
bcc


@<TRIPOS>ATOM
      1 O01          0.0000     0.0000     0.0000 oh         1 71W      -0.595800
      2 C02          1.4290     0.0000     0.0000 c3         1 71W       0.148100
      3 C03          1.9580     0.0000     1.4420 c3         1 71W      -0.102400
      4 C04          2.3740    -1.4400     1.7730 c3         1 71W      -0.082400
      5 C05          2.0970    -2.2950     0.5290 c3         1 71W       0.022400
      6 C06          3.1970    -3.2950     0.2850 ce         1 71W      -0.011400
      7 C07          3.1920    -4.1150    -0.9440 ca         1 71W      -0.044800
      8 C08          3.3500    -3.5090    -2.1920 ca         1 71W      -0.116000
      9 C09          3.3450    -4.2790    -3.3350 ca         1 71W      -0.128500
     10 C10          3.1820    -5.6510    -3.2480 ca         1 71W      -0.129000
     11 C11          3.0250    -6.2580    -2.0150 ca         1 71W      -0.128500
     12 C12          3.0340    -5.4990    -0.8630 ca         1 71W      -0.116000
     13 C13          4.1700    -3.4410     1.1750 c2         1 71W      -0.257000
     14 C14          1.9580    -1.2910    -0.6510 c3         1 71W      -0.073700
     15 C15          0.8140    -1.9370    -1.4660 c3         1 71W      -0.038200
     16 C16          0.0330    -2.7510    -0.4610 c2         1 71W      -0.065400
     17 C17         -1.3640    -3.2700    -0.6820 c3         1 71W      -0.029200
     18 C18         -2.3770    -2.1840    -0.3080 c3         1 71W      -0.072400
     19 C19         -3.7960    -2.7110    -0.5330 c3         1 71W      -0.085400
     20 C20         -4.8070    -1.6250    -0.1600 c3         1 71W      -0.080400
     21 C21         -6.2260    -2.1520    -0.3840 c3         1 71W      -0.084400
     22 C22         -7.2370    -1.0660    -0.0110 c3         1 71W      -0.092100
     23 C23          0.7410    -2.9470     0.6390 ce         1 71W      -0.085400
     24 C24          0.2690    -3.7040     1.8170 ca         1 71W      -0.027800
     25 C25         -0.7870    -3.2140     2.5870 ca         1 71W      -0.120000
     26 C26         -1.2240    -3.9260     3.6860 ca         1 71W      -0.132000
     27 C27         -0.6170    -5.1220     4.0250 ca         1 71W      -0.131000
     28 C28          0.4290    -5.6130     3.2650 ca         1 71W      -0.132000
     29 C29          0.8720    -4.9140     2.1610 ca         1 71W      -0.120000
     30 H011        -0.3140     0.8860    -0.0720 ho         1 71W       0.395000
     31 H021         1.8070     0.8650    -0.5320 h1         1 71W       0.030700
     32 H031         2.8150     0.6580     1.5190 hc         1 71W       0.049200
     33 H032         1.1760     0.3220     2.1200 hc         1 71W       0.049200
     34 H041         1.7910    -1.8080     2.6090 hc         1 71W       0.059200
     35 H042         3.4300    -1.4700     2.0120 hc         1 71W       0.059200
     36 H081         3.4780    -2.4350    -2.2610 ha         1 71W       0.132500
     37 H091         3.4670    -3.8100    -4.3040 ha         1 71W       0.129000
     38 H101         3.1760    -6.2510    -4.1500 ha         1 71W       0.128000
     39 H111         2.9000    -7.3320    -1.9540 ha         1 71W       0.129000
     40 H121         2.9100    -5.9760     0.1020 ha         1 71W       0.132500
     41 H132         4.0120    -4.2750     1.8480 ha         1 71W       0.115500
     42 H131         4.2240    -2.6250     1.8860 ha         1 71W       0.115500
     43 H141         2.8740    -1.1560    -1.2140 hc         1 71W       0.076700
     44 H151         0.1830    -1.1710    -1.9000 hc         1 71W       0.060700
     45 H152         1.2200    -2.5820    -2.2370 hc         1 71W       0.060700
     46 H172        -1.4900    -3.5380    -1.7240 hc         1 71W       0.050200
     47 H171        -1.5270    -4.1440    -0.0620 hc         1 71W       0.050200
     48 H182        -2.2140    -1.3100    -0.9270 hc         1 71W       0.047700
     49 H181        -2.2520    -1.9170     0.7340 hc         1 71W       0.047700
     50 H192        -3.9590    -3.5850     0.0860 hc         1 71W       0.040700
     51 H191        -3.9210    -2.9780    -1.5760 hc         1 71W       0.040700
     52 H201        -4.6440    -0.7510    -0.7790 hc         1 71W       0.040200
     53 H202        -4.6810    -1.3570     0.8820 hc         1 71W       0.040200
     54 H212        -6.3890    -3.0260     0.2350 hc         1 71W       0.039700
     55 H211        -6.3520    -2.4200    -1.4260 hc         1 71W       0.039700
     56 H221        -7.1110    -0.7980     1.0310 hc         1 71W       0.032033
     57 H223        -7.0740    -0.1930    -0.6300 hc         1 71W       0.032033
     58 H222        -8.2420    -1.4390    -0.1690 hc         1 71W       0.032033
     59 H251        -1.2630    -2.2770     2.3220 ha         1 71W       0.137000
     60 H261        -2.0430    -3.5460     4.2840 ha         1 71W       0.127500
     61 H271        -0.9620    -5.6760     4.8900 ha         1 71W       0.127000
     62 H281         0.8990    -6.5520     3.5350 ha         1 71W       0.127500
     63 H291         1.6910    -5.3000     1.5670 ha         1 71W       0.137000
@<TRIPOS>BOND
     1    27    28 ar
     2    27    26 ar
     3    28    29 ar
     4    26    25 ar
     5    29    24 ar
     6    25    24 ar
     7    24    23 1
     8    13     6 2
     9    23     5 1
    10    23    16 2
    11    20    21 1
    12    20    19 1
    13     6     7 1
    14     6     5 1
    15     8     7 ar
    16     8     9 ar
    17    21    22 1
    18     7    12 ar
    19    17    16 1
    20    17    18 1
    21     4     5 1
    22     4     3 1
    23     9    10 ar
    24     5    14 1
    25    16    15 1
    26    18    19 1
    27    12    11 ar
    28    10    11 ar
    29     3     2 1
    30    14    15 1
    31    14     2 1
    32     2     1 1
    33     1    30 1
    34     2    31 1
    35     3    32 1
    36     3    33 1
    37     4    34 1
    38     4    35 1
    39     8    36 1
    40     9    37 1
    41    10    38 1
    42    11    39 1
    43    12    40 1
    44    13    41 1
    45    13    42 1
    46    14    43 1
    47    15    44 1
    48    15    45 1
    49    17    46 1
    50    17    47 1
    51    18    48 1
    52    18    49 1
    53    19    50 1
    54    19    51 1
    55    20    52 1
    56    20    53 1
    57    21    54 1
    58    21    55 1
    59    22    56 1
    60    22    57 1
    61    22    58 1
    62    25    59 1
    63    26    60 1
    64    27    61 1
    65    28    62 1
    66    29    63 1
@<TRIPOS>SUBSTRUCTURE
     1 71W         1 TEMP              0 ****  ****    0 ROOT
