@<TRIPOS>MOLECULE
molecule
   49    51     1     0     0
SMALL
bcc


@<TRIPOS>ATOM
      1 N1           0.0000     0.0000     0.0000 na         1 71X      -0.139100
      2 C4          -6.2640    -3.2120     1.3380 ca         1 71X      -0.126000
      3 C5          -5.3920    -4.0420     2.0120 ca         1 71X      -0.116000
      4 C6          -4.1580    -3.5600     2.4140 ca         1 71X       0.024400
      5 C7          -3.8100    -2.2530     2.1400 ca         1 71X      -0.102000
      6 C8          -4.6880    -1.4170     1.4620 ca         1 71X      -0.092300
      7 C10         -1.8650     0.0000     1.7150 c          1 71X       0.708700
      8 C13          0.5890    -0.0000     3.6400 c3         1 71X      -0.021100
      9 C15          1.7770     0.0000     1.3160 cc         1 71X      -0.261600
     10 C17          3.8510    -1.3030     2.1130 c3         1 71X      -0.189100
     11 O2           3.7740     1.0460     1.8820 o          1 71X      -0.521100
     12 C16          3.1700    -0.0010     1.7750 c          1 71X       0.611700
     13 C19          2.2240    -0.0010    -1.2210 c3         1 71X      -0.029800
     14 C18          1.3410     0.0000     0.0000 cd         1 71X      -0.052600
     15 C14          0.5780     1.4420     4.1510 c3         1 71X      -0.082100
     16 O1          -2.1490     0.0000     2.8980 o          1 71X      -0.599100
     17 C11         -0.4560     0.0010     1.3000 cd         1 71X      -0.211900
     18 C9          -4.2470     0.0010     1.2030 c3         1 71X       0.172000
     19 C3          -5.9130    -1.8970     1.0570 ca         1 71X      -0.074300
     20 C2          -6.9070    -1.0510     0.3050 c3         1 71X      -0.036100
     21 C1          -6.5740     0.4310     0.4560 c3         1 71X      -0.099400
     22 C12          0.6210     0.0000     2.1340 cc         1 71X      -0.020300
     23 N           -2.8410     0.0010     0.7880 ns         1 71X      -0.578900
     24 C           -5.0960     0.6340     0.1030 c3         1 71X       0.136100
     25 O           -4.8100     2.0320     0.0190 oh         1 71X      -0.595800
     26 H2          -0.5790    -0.0000    -0.8170 hn         1 71X       0.292700
     27 H8          -7.2290    -3.5890     1.0240 ha         1 71X       0.136000
     28 H9          -5.6720    -5.0670     2.2240 ha         1 71X       0.144000
     29 H10         -2.8440    -1.8780     2.4540 ha         1 71X       0.171000
     30 H12         -0.3020    -0.5120     3.9840 hc         1 71X       0.059200
     31 H13          1.4660    -0.5110     4.0190 hc         1 71X       0.059200
     32 H17          3.1810    -2.1270     1.8990 hc         1 71X       0.060367
     33 H19          4.7510    -1.4040     1.5170 hc         1 71X       0.060367
     34 H18          4.1110    -1.3120     3.1640 hc         1 71X       0.060367
     35 H20          2.9570     0.7920    -1.1370 hc         1 71X       0.054367
     36 H21          1.6180     0.1600    -2.1050 hc         1 71X       0.054367
     37 H22          2.7310    -0.9550    -1.3000 hc         1 71X       0.054367
     38 H16         -0.1750     1.5470     4.9220 hc         1 71X       0.038367
     39 H14          0.3520     2.1140     3.3310 hc         1 71X       0.038367
     40 H15          1.5510     1.6880     4.5600 hc         1 71X       0.038367
     41 H11         -4.3560     0.5780     2.1130 h1         1 71X       0.111700
     42 H7          -7.9000    -1.2350     0.6980 hc         1 71X       0.054700
     43 H6          -6.8780    -1.3170    -0.7450 hc         1 71X       0.054700
     44 H4          -6.7490     0.7410     1.4800 hc         1 71X       0.060700
     45 H5          -7.1920     1.0130    -0.2170 hc         1 71X       0.060700
     46 H1          -2.6070     0.0130    -0.1850 hn         1 71X       0.303500
     47 H3          -4.8800     0.1550    -0.8440 h1         1 71X       0.032700
     48 H           -4.8550     2.3090    -0.8810 ho         1 71X       0.403000
     49 Cl          -3.0530    -4.5970     3.2610 cl         1 71X      -0.107400
@<TRIPOS>BOND
     1    20    19 1   
     2    20    21 1   
     3     2     3 ar  
     4     2    19 ar  
     5     3     4 ar  
     6    19     6 ar  
     7    21    24 1   
     8    16     7 2   
     9     4     5 ar  
    10     4    49 1   
    11    24    25 1   
    12    24    18 1   
    13     6     5 ar  
    14     6    18 1   
    15    13    14 1   
    16     1    14 1   
    17     1    17 1   
    18     7    17 1   
    19     7    23 1   
    20    18    23 1   
    21    14     9 2   
    22    17    22 2   
    23     9    22 1   
    24     9    12 1   
    25    22     8 1   
    26    11    12 2   
    27    12    10 1   
    28     8    15 1   
    29     1    26 1   
    30     2    27 1   
    31     3    28 1   
    32     5    29 1   
    33     8    30 1   
    34     8    31 1   
    35    10    32 1   
    36    10    33 1   
    37    10    34 1   
    38    13    35 1   
    39    13    36 1   
    40    13    37 1   
    41    15    38 1   
    42    15    39 1   
    43    15    40 1   
    44    18    41 1   
    45    20    42 1   
    46    20    43 1   
    47    21    44 1   
    48    21    45 1   
    49    23    46 1   
    50    24    47 1   
    51    25    48 1   
@<TRIPOS>SUBSTRUCTURE
     1 71X         1 TEMP              0 ****  ****    0 ROOT
