@<TRIPOS>MOLECULE
molecule
   49    51     1     0     0
SMALL
bcc


@<TRIPOS>ATOM
      1 N1           0.0000     0.0000     0.0000 ns         1 71Y      -0.578900
      2 C4          -4.2350     0.4310     0.0180 cc         1 71Y      -0.052600
      3 C5          -4.2790     1.8100     0.1420 cd         1 71Y      -0.261600
      4 C6          -5.4860     2.6410     0.2110 c          1 71Y       0.611700
      5 C7          -6.0500     3.0400     1.5500 c3         1 71Y      -0.189100
      6 C8          -5.4270    -0.4860    -0.0700 c3         1 71Y      -0.030800
      7 C10          1.4650     0.0000     0.0000 c3         1 71Y       0.172000
      8 C13          3.7580    -1.7040     0.9100 c3         1 71Y      -0.038100
      9 C15          3.4290    -0.7270     3.1650 ca         1 71Y      -0.126000
     10 C17          1.7260     0.8770     3.6490 ca         1 71Y       0.024400
     11 O2           1.6710    -1.1120    -2.1370 oh         1 71Y      -0.595800
     12 C16          2.7890     0.0960     4.0670 ca         1 71Y      -0.116000
     13 C19          1.9610     0.0000     1.4220 ca         1 71Y      -0.093300
     14 C18          1.3160     0.8270     2.3320 ca         1 71Y      -0.102000
     15 C14          3.0170    -0.7790     1.8400 ca         1 71Y      -0.076300
     16 O1          -0.0660     2.2120     0.1970 o          1 71Y      -0.599100
     17 C11          1.9690    -1.2350    -0.7450 c3         1 71Y       0.134100
     18 C9          -0.6740     1.1620     0.1010 c          1 71Y       0.708700
     19 C3          -2.1420     1.1630     0.0940 cc         1 71Y      -0.211900
     20 C2          -2.9390     2.2640     0.1890 cd         1 71Y      -0.020300
     21 C1          -2.4810     3.6940     0.3250 c3         1 71Y      -0.021100
     22 C12          3.4860    -1.3330    -0.5470 c3         1 71Y      -0.099400
     23 Cl           0.9110     1.9140     4.7780 cl         1 71Y      -0.106400
     24 N           -2.9490     0.0510    -0.0160 na         1 71Y      -0.139100
     25 O           -6.0280     3.0090    -0.8090 o          1 71Y      -0.520100
     26 C           -2.3140     4.3100    -1.0660 c3         1 71Y      -0.082100
     27 H12         -0.5000    -0.8630    -0.0860 hn         1 71Y       0.303500
     28 H7          -7.0820     2.7190     1.6170 hc         1 71Y       0.060367
     29 H8          -5.4740     2.5710     2.3390 hc         1 71Y       0.060367
     30 H6          -5.9990     4.1170     1.6570 hc         1 71Y       0.060367
     31 H9          -6.1120    -0.1170    -0.8240 hc         1 71Y       0.054367
     32 H10         -5.0980    -1.4830    -0.3400 hc         1 71Y       0.054367
     33 H11         -5.9290    -0.5190     0.8890 hc         1 71Y       0.054367
     34 H13          1.8260     0.8890    -0.5020 h1         1 71Y       0.110700
     35 H19          4.8210    -1.6040     1.0980 hc         1 71Y       0.056700
     36 H18          3.4100    -2.7160     1.0800 hc         1 71Y       0.056700
     37 H20          4.2620    -1.3380     3.4930 ha         1 71Y       0.136000
     38 H15          1.4660    -1.9620    -2.4900 ho         1 71Y       0.403000
     39 H21          3.1160     0.1310     5.0990 ha         1 71Y       0.144000
     40 H22          0.4830     1.4380     2.0060 ha         1 71Y       0.172000
     41 H14          1.4930    -2.1200    -0.3420 h1         1 71Y       0.031700
     42 H4          -3.2180     4.2580     0.8840 hc         1 71Y       0.059700
     43 H5          -1.5330     3.7210     0.8480 hc         1 71Y       0.059700
     44 H16          3.8750    -2.1140    -1.1880 hc         1 71Y       0.061700
     45 H17          3.9320    -0.3680    -0.7540 hc         1 71Y       0.061700
     46 H           -2.6250    -0.8920    -0.1010 hn         1 71Y       0.292700
     47 H2          -2.3270     3.5260    -1.8130 hc         1 71Y       0.038367
     48 H3          -3.1270     5.0010    -1.2540 hc         1 71Y       0.038367
     49 H1          -1.3710     4.8400    -1.1150 hc         1 71Y       0.038367
@<TRIPOS>BOND
     1    22     8 1
     2    22    17 1
     3    11    17 1
     4     8    15 1
     5    17     7 1
     6    15     9 ar
     7    15    13 ar
     8     7     1 1
     9     7    13 1
    10     9    12 ar
    11     1    18 1
    12    13    14 ar
    13    18    16 2
    14    18    19 1
    15    24    19 1
    16    24     2 1
    17     6     2 1
    18    12    10 ar
    19    19    20 2
    20    14    10 ar
    21     2     3 2
    22    10    23 1
    23    20     3 1
    24    20    21 1
    25     3     4 1
    26     5     4 1
    27    21    26 1
    28     4    25 2
    29     1    27 1
    30     5    28 1
    31     5    29 1
    32     5    30 1
    33     6    31 1
    34     6    32 1
    35     6    33 1
    36     7    34 1
    37     8    35 1
    38     8    36 1
    39     9    37 1
    40    11    38 1
    41    12    39 1
    42    14    40 1
    43    17    41 1
    44    21    42 1
    45    21    43 1
    46    22    44 1
    47    22    45 1
    48    24    46 1
    49    26    47 1
    50    26    48 1
    51    26    49 1
@<TRIPOS>SUBSTRUCTURE
     1 71Y         1 TEMP              0 ****  ****    0 ROOT
