@<TRIPOS>MOLECULE
molecule
   38    38     1     0     0
SMALL
bcc


@<TRIPOS>ATOM
      1 N            0.0000     0.0000     0.0000 nz         1 720      -0.802600
      2 CA           1.4580     0.0000     0.0000 c3         1 720       0.073800
      3 CG           7.2330     0.2890     5.9260 cc         1 720       0.380400
      4 CE1          7.0080    -2.9480     9.3160 c3         1 720      -0.090100
      5 CE2          7.6070    -1.8860     7.1140 c3         1 720       0.046300
      6 CZ           6.5120    -2.0990     8.1560 c3         1 720      -0.107400
      7 CH           2.0590     0.0000     1.4080 c3         1 720      -0.099400
      8 CM           3.5930    -0.0620     1.4160 c3         1 720      -0.047400
      9 CA2          4.1710    -0.1280     2.8440 c3         1 720      -0.164700
     10 CB2          5.7030    -0.2820     2.7940 c3         1 720      -0.077700
     11 CG2          6.3360    -0.3900     4.1550 cd         1 720       0.318600
     12 CD3          6.5720    -1.5220     4.8600 cc         1 720      -0.269600
     13 N2           6.7370     0.7370     4.7940 nd         1 720      -0.612000
     14 C            3.8120     1.1390     3.6100 c          1 720       0.886600
     15 N1           7.1550    -1.0730     6.0110 na         1 720      -0.191900
     16 O            3.0620     0.8880     4.7130 o          1 720      -0.832300
     17 OXT          4.1680     2.2670     3.2910 o          1 720      -0.832300
     18 HN1         -0.3340     0.8110     0.4820 hn         1 720       0.449133
     19 HN2         -0.3340     0.0120    -0.9440 hn         1 720       0.449133
     20 HAC1         1.8060    -0.8810    -0.5260 hx         1 720       0.098200
     21 HAC2         1.8060     0.8810    -0.5260 hx         1 720       0.098200
     22 HHC1         1.7460     0.9030     1.9190 hc         1 720       0.076700
     23 HHC2         1.6750    -0.8560     1.9490 hc         1 720       0.076700
     24 HE21         8.4480    -1.3920     7.5840 h1         1 720       0.049700
     25 HE22         7.9290    -2.8500     6.7410 h1         1 720       0.049700
     26 HZC1         5.6700    -2.5940     7.6890 hc         1 720       0.058200
     27 HZC2         6.1910    -1.1360     8.5350 hc         1 720       0.058200
     28 HE11         7.3260    -3.9150     8.9450 hc         1 720       0.033700
     29 HE12         6.2080    -3.0820    10.0330 hc         1 720       0.033700
     30 HE13         7.8430    -2.4520     9.7950 hc         1 720       0.033700
     31 HG           7.6530     0.9230     6.6980 h5         1 720       0.049100
     32 HMC1         3.9100    -0.9420     0.8680 hc         1 720       0.034200
     33 HMC2         3.9820     0.8190     0.9200 hc         1 720       0.034200
     34 HA2          3.7470    -0.9820     3.3570 hc         1 720       0.053700
     35 HB21         6.1220     0.5760     2.2840 hc         1 720       0.034700
     36 HB22         5.9440    -1.1740     2.2290 hc         1 720       0.034700
     37 HD3          6.3500    -2.5440     4.5780 h4         1 720       0.169000
     38 HN3         -0.3340    -0.8350     0.4390 hn         1 720       0.449133
@<TRIPOS>BOND
     1     1     2 1   
     2     1    18 1   
     3     1    19 1   
     4     2     7 1   
     5     2    20 1   
     6     2    21 1   
     7     3    13 2   
     8     3    15 1   
     9     3    31 1   
    10     4     6 1   
    11     4    28 1   
    12     4    29 1   
    13     4    30 1   
    14     5     6 1   
    15     5    15 1   
    16     5    24 1   
    17     5    25 1   
    18     6    26 1   
    19     6    27 1   
    20     7     8 1   
    21     7    22 1   
    22     7    23 1   
    23     8     9 1   
    24     8    32 1   
    25     8    33 1   
    26     9    10 1   
    27     9    14 1   
    28     9    34 1   
    29    10    11 1   
    30    10    35 1   
    31    10    36 1   
    32    11    12 2   
    33    11    13 1   
    34    12    15 1   
    35    12    37 1   
    36    14    16 1   
    37    14    17 1   
    38    38     1 1   
@<TRIPOS>SUBSTRUCTURE
     1 720         1 TEMP              0 ****  ****    0 ROOT
