@<TRIPOS>MOLECULE
721
   37    37     1     0     0
SMALL
bcc


@<TRIPOS>ATOM
      1 O6          0.9130    0.1600    3.0770 o         1 721     -0.924500
      2 P2          2.1840    0.2080    2.2860 p5        1 721      2.119000
      3 O5          2.8740    1.6020    3.1070 os        1 721     -0.738000
      4 O4          3.2000   -0.8310    2.6110 o         1 721     -0.924500
      5 C1          2.1740    0.7700    0.7810 c2        1 721     -1.455000
      6 P1          1.1570    0.1770   -1.1120 p3        1 721      2.559000
      7 O3         -0.1460    0.9090   -1.0850 o         1 721     -1.222000
      8 O2          2.1750    0.7550   -2.0460 o         1 721     -1.222000
      9 O1          1.0860   -1.3110   -1.0560 o         1 721     -1.222000
     10 C2          1.6740    2.1340    0.5510 c3        1 721      0.034000
     11 N1          2.1450    3.1780    1.4880 n3        1 721     -0.260000
     12 C3          2.9040    4.2220    1.0970 c2        1 721      0.066000
     13 C4          3.4250    5.1610    1.9700 c2        1 721     -0.418000
     14 C5          3.2380    4.9730    3.3770 c2        1 721     -0.130000
     15 C7          2.1240    2.7430    2.9090 c3        1 721      0.227000
     16 C6          2.5940    3.8660    3.8280 c2        1 721     -0.055000
     17 O7          2.2910    3.8110    5.1860 os        1 721     -0.267000
     18 C8          2.4620    2.5390    5.8150 c3        1 721     -0.015000
     19 C9          1.1210    1.8450    5.9690 c3        1 721     -0.200000
     20 C10         1.2600    0.5240    6.6970 c3        1 721     -0.130000
     21 C11         0.2100   -0.4530    6.2300 c3        1 721     -0.233000
     22 H1          3.1000    0.5360    0.2280 ha        1 721      0.132000
     23 H2          1.9330    2.4790   -0.4950 h1        1 721      0.101000
     24 H2A         0.5430    2.1470    0.6380 h1        1 721      0.101000
     25 H3          3.0350    4.3490    0.0040 h4        1 721      0.110000
     26 H4          3.9720    6.0300    1.6030 ha        1 721      0.080000
     27 H5          3.5830    5.7540    4.0670 ha        1 721      0.072000
     28 H7          1.0290    2.5100    3.1270 h2        1 721      0.096000
     29 H8          2.8960    2.7920    6.8230 h1        1 721      0.084000
     30 H8A         3.1740    1.8910    5.2370 h1        1 721      0.084000
     31 H9          0.7110    1.6450    4.9340 hc        1 721      0.108000
     32 H9A         0.4010    2.5130    6.5080 hc        1 721      0.108000
     33 H10         2.2730    0.0880    6.4860 hc        1 721      0.045000
     34 H10A        1.1890    0.6810    7.8070 hc        1 721      0.045000
     35 H11        -0.8130   -0.0880    6.4880 hc        1 721      0.082000
     36 H11A        0.2860   -0.5600    5.1060 hc        1 721      0.082000
     37 H11B        0.3580   -1.4500    6.7100 hc        1 721      0.082000
@<TRIPOS>BOND
     1    1    2 1   
     2    2    3 1   
     3    2    4 1   
     4    2    5 1   
     5    3   15 1   
     6    5   10 1   
     7    5   22 1   
     8    6    7 1   
     9    6    8 1   
    10    6    9 1   
    11   10   11 1   
    12   10   23 1   
    13   10   24 1   
    14   11   12 1   
    15   11   15 1   
    16   12   13 1   
    17   12   25 1   
    18   13   14 1   
    19   13   26 1   
    20   14   16 1   
    21   14   27 1   
    22   15   16 1   
    23   15   28 1   
    24   16   17 1   
    25   17   18 1   
    26   18   19 1   
    27   18   29 1   
    28   18   30 1   
    29   19   20 1   
    30   19   31 1   
    31   19   32 1   
    32   20   21 1   
    33   20   33 1   
    34   20   34 1   
    35   21   35 1   
    36   21   36 1   
    37   21   37 1   
@<TRIPOS>SUBSTRUCTURE
     1 721         1 TEMP              0 ****  ****    0 ROOT
