@<TRIPOS>MOLECULE
molecule
   37    37     1     0     0
SMALL
bcc


@<TRIPOS>ATOM
      1 O6           0.0000     0.0000     0.0000 o          1 721      -0.857667
      2 P2           1.4800     0.0000     0.0000 p5         1 721       1.064200
      3 O5           2.0160     0.0000     1.5180 o          1 721      -0.857667
      4 O4           2.0170    -1.3150    -0.7590 o          1 721      -0.857667
      5 C1           2.0870     1.4880    -0.8590 c3         1 721      -0.348100
      6 P1           1.4790     1.4890    -2.5780 p5         1 721       1.064200
      7 O3           0.0000     1.4330    -2.5790 o          1 721      -0.857667
      8 O2           1.9660     2.8320    -3.3190 o          1 721      -0.857667
      9 O1           2.0660     0.2050    -3.3550 o          1 721      -0.857667
     10 C2           1.5760     2.7380    -0.1380 c3         1 721       0.039300
     11 N1           2.1810     2.8140     1.1950 na         1 721       0.079900
     12 C3           3.3950     3.3170     1.3200 ca         1 721      -0.051300
     13 C4           4.0010     3.4050     2.5590 ca         1 721      -0.227000
     14 C5           3.3170     2.9590     3.6800 ca         1 721      -0.239000
     15 C7           1.4970     2.3830     2.2350 ca         1 721      -0.032300
     16 C6           2.0400     2.4350     3.5100 ca         1 721       0.126100
     17 O7           1.3330     1.9850     4.5800 os         1 721      -0.309900
     18 C8           1.9620     2.0790     5.8600 c3         1 721       0.149400
     19 C9           1.0190     1.5270     6.9320 c3         1 721      -0.083400
     20 C10          1.6930     1.6280     8.3030 c3         1 721      -0.083400
     21 C11          0.7510     1.0760     9.3750 c3         1 721      -0.090100
     22 H1           3.1710     1.4890    -0.8590 hc         1 721       0.044700
     23 H2           1.8450     3.6190    -0.7070 h1         1 721       0.074200
     24 H2A          0.4980     2.6840    -0.0420 h1         1 721       0.074200
     25 H3           3.9230     3.6640     0.4410 h4         1 721       0.168000
     26 H4           4.9970     3.8190     2.6540 ha         1 721       0.105000
     27 H5           3.7680     3.0150     4.6630 ha         1 721       0.097000
     28 H7           0.5030     1.9770     2.0910 h4         1 721       0.222000
     29 H8           2.8790     1.5020     5.8540 h1         1 721       0.022200
     30 H8A          2.1880     3.1160     6.0760 h1         1 721       0.022200
     31 H9           0.7930     0.4900     6.7160 hc         1 721       0.056700
     32 H9A          0.1020     2.1040     6.9370 hc         1 721       0.056700
     33 H10          1.9180     2.6650     8.5190 hc         1 721       0.033700
     34 H10A         2.6100     1.0520     8.2970 hc         1 721       0.033700
     35 H11         -0.1670     1.6520     9.3810 hc         1 721       0.025367
     36 H11A         0.5250     0.0390     9.1590 hc         1 721       0.025367
     37 H11B         1.2280     1.1470    10.3450 hc         1 721       0.025367
@<TRIPOS>BOND
     1     1     2 1
     2     3     2 1
     3     4     2 1
     4     2     5 1
     5     5    10 1
     6     5     6 1
     7     5    22 1
     8     7     6 1
     9     9     6 1
    10     6     8 1
    11    11    10 1
    12    10    23 1
    13    10    24 1
    14    15    11 1
    15    12    11 2
    16    13    12 ar
    17    12    25 1
    18    14    13 ar
    19    13    26 1
    20    14    16 ar
    21    14    27 1
    22    16    15 ar
    23    15    28 1
    24    17    16 1
    25    18    17 1
    26    19    18 1
    27    18    29 1
    28    18    30 1
    29    20    19 1
    30    19    31 1
    31    19    32 1
    32    21    20 1
    33    20    33 1
    34    20    34 1
    35    21    35 1
    36    21    36 1
    37    21    37 1
@<TRIPOS>SUBSTRUCTURE
     1 721         1 TEMP              0 ****  ****    0 ROOT
