@<TRIPOS>MOLECULE
722
   46    46     1     0     0
SMALL
bcc


@<TRIPOS>ATOM
      1 O1          4.3370    1.4660    0.2970 o         1 722     -1.221000
      2 P1          5.4730    1.5170   -0.6780 p3        1 722      2.558000
      3 O3          6.7760    2.0090   -0.1480 o         1 722     -1.221000
      4 O2          5.5300    0.3620   -1.6260 o         1 722     -1.221000
      5 C1          4.6870    3.2090   -1.9030 c2        1 722     -1.457000
      6 P2          5.3510    4.3350   -2.8340 p5        1 722      2.122000
      7 O4          5.7470    5.6110   -2.1790 o         1 722     -0.926000
      8 O5          6.1570    3.9370   -4.0340 o         1 722     -0.926000
      9 O6          3.9250    4.8550   -3.7210 os        1 722     -0.739000
     10 C2          3.7610    2.2480   -2.5220 c3        1 722      0.034000
     11 N1          2.7560    2.8060   -3.4540 n3        1 722     -0.260000
     12 C7          3.3190    3.8120   -4.3910 c3        1 722      0.227000
     13 C6          2.2450    4.3310   -5.3410 c2        1 722     -0.056000
     14 C5          0.9170    4.1380   -5.1350 c2        1 722     -0.129000
     15 C4          0.4790    3.3440   -4.0270 c2        1 722     -0.417000
     16 C3          1.4290    2.7540   -3.2130 c2        1 722      0.066000
     17 O7          2.6230    4.9660   -6.5210 os        1 722     -0.267000
     18 C8          3.6960    5.9050   -6.4110 c3        1 722     -0.015000
     19 C9          4.9920    5.2770   -6.8930 c3        1 722     -0.198000
     20 C10         6.1410    6.2630   -6.8360 c3        1 722     -0.126000
     21 C11         7.4380    5.5430   -6.5320 c3        1 722     -0.198000
     22 C12         8.5880    6.5110   -6.3680 c3        1 722     -0.140000
     23 C13         9.8570    5.7820   -5.9800 c3        1 722     -0.166000
     24 C14        11.0080    6.7310   -5.7730 c3        1 722     -0.200000
     25 H1          4.3380    3.6020   -0.9330 ha        1 722      0.133000
     26 H2          4.3450    1.4940   -3.1350 h1        1 722      0.101000
     27 H2A         3.2000    1.6710   -1.7270 h1        1 722      0.101000
     28 H7          4.1090    3.2450   -4.9860 h2        1 722      0.095000
     29 H5          0.1670    4.5440   -5.8270 ha        1 722      0.072000
     30 H4         -0.5870    3.2150   -3.8360 ha        1 722      0.081000
     31 H3          1.1130    2.1330   -2.3530 h4        1 722      0.110000
     32 H8          3.3890    6.7500   -7.0900 h1        1 722      0.085000
     33 H8A         3.8080    6.2740   -5.3560 h1        1 722      0.085000
     34 H9          4.8660    4.8840   -7.9340 hc        1 722      0.106500
     35 H9A         5.2270    4.4050   -6.2120 hc        1 722      0.106500
     36 H10         6.2210    6.8280   -7.8030 hc        1 722      0.047000
     37 H10A        5.9500    7.0150   -6.0250 hc        1 722      0.047000
     38 H11         7.2890    4.9420   -5.5750 hc        1 722      0.131500
     39 H11A        7.6710    4.8180   -7.3550 hc        1 722      0.131500
     40 H12         8.7570    7.0850   -7.3180 hc        1 722      0.053000
     41 H12A        8.3300    7.2560   -5.5690 hc        1 722      0.053000
     42 H13         9.6630    5.2020   -5.0360 hc        1 722      0.092500
     43 H13A       10.1210    5.0380   -6.7780 hc        1 722      0.092500
     44 H14        11.9340    6.1710   -5.4940 hc        1 722      0.050667
     45 H14A       10.7740    7.4540   -4.9550 hc        1 722      0.050667
     46 H14B       11.2190    7.3130   -6.7040 hc        1 722      0.050667
@<TRIPOS>BOND
     1    1    2 1   
     2    2    3 1   
     3    2    4 1   
     4    5    6 1   
     5    5   10 1   
     6    5   25 1   
     7    6    7 1   
     8    6    8 1   
     9    6    9 1   
    10    9   12 1   
    11   10   11 1   
    12   10   26 1   
    13   10   27 1   
    14   11   12 1   
    15   11   16 1   
    16   12   13 1   
    17   12   28 1   
    18   13   14 1   
    19   13   17 1   
    20   14   15 1   
    21   14   29 1   
    22   15   16 1   
    23   15   30 1   
    24   16   31 1   
    25   17   18 1   
    26   18   19 1   
    27   18   32 1   
    28   18   33 1   
    29   19   20 1   
    30   19   34 1   
    31   19   35 1   
    32   20   21 1   
    33   20   36 1   
    34   20   37 1   
    35   21   22 1   
    36   21   38 1   
    37   21   39 1   
    38   22   23 1   
    39   22   40 1   
    40   22   41 1   
    41   23   24 1   
    42   23   42 1   
    43   23   43 1   
    44   24   44 1   
    45   24   45 1   
    46   24   46 1   
@<TRIPOS>SUBSTRUCTURE
     1 722         1 TEMP              0 ****  ****    0 ROOT
