@<TRIPOS>MOLECULE
molecule
   46    46     1     0     0
SMALL
bcc


@<TRIPOS>ATOM
      1 O1           0.0000     0.0000     0.0000 o          1 722      -0.858667
      2 P1           1.6100     0.0000     0.0000 p5         1 722       1.050700
      3 O3           2.1040     0.0000     1.3960 o          1 722      -0.858667
      4 O2           2.1470    -1.3140    -0.7600 o          1 722      -0.858667
      5 C1           2.2180     1.4890    -0.8590 c3         1 722      -0.332100
      6 P2           3.9910     1.7160    -0.5000 p5         1 722       1.050700
      7 O4           4.2000     1.8890     1.0870 o          1 722      -0.858667
      8 O5           4.8110     0.4290    -1.0120 o          1 722      -0.858667
      9 O6           4.4840     2.9240    -1.1970 o          1 722      -0.858667
     10 C2           2.0190     1.3260    -2.3670 c3         1 722       0.040300
     11 N1           2.3710     2.5750    -3.0440 na         1 722       0.089900
     12 C7           3.5700     2.6980    -3.5810 ca         1 722      -0.024300
     13 C6           3.9380     3.8680    -4.2300 ca         1 722       0.124100
     14 C5           3.0230     4.9130    -4.3080 ca         1 722      -0.257000
     15 C4           1.7760     4.7410    -3.7320 ca         1 722      -0.203000
     16 C3           1.4800     3.5450    -3.1060 ca         1 722      -0.069300
     17 O7           5.1740     3.9900    -4.7810 os         1 722      -0.307900
     18 C8           5.4740     5.2270    -5.4310 c3         1 722       0.149400
     19 C9           6.8990     5.1790    -5.9850 c3         1 722      -0.084400
     20 C10          7.2220     6.5020    -6.6810 c3         1 722      -0.080400
     21 C11          8.6470     6.4530    -7.2350 c3         1 722      -0.080400
     22 C12          8.9690     7.7780    -7.9310 c3         1 722      -0.082400
     23 C13         10.3940     7.7290    -8.4850 c3         1 722      -0.084400
     24 C14         10.7160     9.0530    -9.1820 c3         1 722      -0.092100
     25 H1           1.6660     2.3550    -0.5140 hc         1 722       0.045700
     26 H2           0.9830     1.0840    -2.5700 h1         1 722       0.076700
     27 H2A          2.6540     0.5260    -2.7300 h1         1 722       0.076700
     28 H7           4.2740     1.8780    -3.5140 h4         1 722       0.226000
     29 H5           3.2810     5.8400    -4.8060 ha         1 722       0.098000
     30 H4           1.0380     5.5330    -3.7760 ha         1 722       0.105000
     31 H3           0.5050     3.4050    -2.6540 h4         1 722       0.168000
     32 H8           5.3910     6.0390    -4.7190 h1         1 722       0.022700
     33 H8A          4.7760     5.3870    -6.2440 h1         1 722       0.022700
     34 H9           6.9830     4.3660    -6.6970 hc         1 722       0.057200
     35 H9A          7.5970     5.0190    -5.1720 hc         1 722       0.057200
     36 H10          6.5240     6.6620    -7.4940 hc         1 722       0.035700
     37 H10A         7.1390     7.3140    -5.9690 hc         1 722       0.035700
     38 H11          8.7300     5.6410    -7.9470 hc         1 722       0.043200
     39 H11A         9.3450     6.2940    -6.4220 hc         1 722       0.043200
     40 H12          8.8860     8.5900    -7.2190 hc         1 722       0.037200
     41 H12A         8.2710     7.9380    -8.7440 hc         1 722       0.037200
     42 H13         11.0920     7.5700    -7.6720 hc         1 722       0.039700
     43 H13A        10.4770     6.9170    -9.1970 hc         1 722       0.039700
     44 H14         10.6320     9.8650    -8.4700 hc         1 722       0.025700
     45 H14A        10.0180     9.2120    -9.9950 hc         1 722       0.025700
     46 H14B        11.7250     9.0190    -9.5740 hc         1 722       0.025700
@<TRIPOS>BOND
     1     1     2 1
     2     5     2 1
     3     3     2 1
     4     2     4 1
     5     6     5 1
     6     5    10 1
     7     5    25 1
     8     9     6 1
     9     8     6 1
    10     7     6 1
    11    11    10 1
    12    10    26 1
    13    10    27 1
    14    12    11 1
    15    16    11 2
    16    13    12 ar
    17    12    28 1
    18    17    13 1
    19    14    13 ar
    20    14    15 ar
    21    14    29 1
    22    15    16 ar
    23    15    30 1
    24    16    31 1
    25    18    17 1
    26    18    19 1
    27    18    32 1
    28    18    33 1
    29    20    19 1
    30    19    34 1
    31    19    35 1
    32    21    20 1
    33    20    36 1
    34    20    37 1
    35    21    22 1
    36    21    38 1
    37    21    39 1
    38    23    22 1
    39    22    40 1
    40    22    41 1
    41    24    23 1
    42    23    42 1
    43    23    43 1
    44    24    44 1
    45    24    45 1
    46    24    46 1
@<TRIPOS>SUBSTRUCTURE
     1 722         1 TEMP              0 ****  ****    0 ROOT
