@<TRIPOS>MOLECULE
molecule
   33    35     1     0     0
SMALL
bcc


@<TRIPOS>ATOM
      1 N            0.0000     0.0000     0.0000 ns         1 723      -0.435100
      2 Cl           5.8960    -0.0020    -0.0410 cl         1 723      -0.140400
      3 C1          -0.0610    -0.0010    -2.4020 cc         1 723      -0.060400
      4 O1          -1.9160    -0.0010    -1.1020 o          1 723      -0.622500
      5 C2          -0.8840    -0.0010    -3.6650 c3         1 723      -0.150200
      6 O2          -2.0000    -1.6610    -5.1110 o          1 723      -0.840800
      7 C3           1.3080    -0.0000    -2.4770 cd         1 723      -0.019400
      8 O3          -0.8990    -2.3320    -3.3160 o          1 723      -0.840800
      9 C4           1.9950     0.0000    -3.7880 ca         1 723      -0.017800
     10 C5           2.0760    -0.0010    -1.2220 ca         1 723      -0.046800
     11 C6           1.3800     0.0000     0.0000 ca         1 723       0.093600
     12 C7          -0.6980    -0.0010    -1.1480 c          1 723       0.702700
     13 C8           1.8690     1.0940    -4.6450 ca         1 723      -0.102000
     14 C9           2.5130     1.0890    -5.8640 ca         1 723      -0.133500
     15 C10          3.2830     0.0020    -6.2390 ca         1 723      -0.135000
     16 C11          3.4120    -1.0870    -5.3940 ca         1 723      -0.133500
     17 C12          2.7780    -1.0910    -4.1690 ca         1 723      -0.102000
     18 C13          3.4720    -0.0010    -1.2300 ca         1 723      -0.078000
     19 C14          4.1600    -0.0020    -0.0370 ca         1 723      -0.043600
     20 C15          3.4720    -0.0020     1.1710 ca         1 723      -0.112000
     21 C16          2.0950     0.0000     1.1940 ca         1 723      -0.182000
     22 C17         -1.2620    -1.4160    -4.0170 c          1 723       0.905600
     23 HN          -0.4910     0.0010     0.8720 hn         1 723       0.326500
     24 H2          -1.7820     0.5850    -3.5110 hc         1 723       0.058200
     25 H2A         -0.3050     0.4310    -4.4730 hc         1 723       0.058200
     26 H8           1.2660     1.9460    -4.3530 ha         1 723       0.137000
     27 H9           2.4160     1.9380    -6.5300 ha         1 723       0.119500
     28 H10          3.7850     0.0020    -7.1990 ha         1 723       0.114000
     29 H11          4.0180    -1.9340    -5.6920 ha         1 723       0.119500
     30 H12          2.8790    -1.9440    -3.5080 ha         1 723       0.137000
     31 H13          4.3080     0.1640    -1.8990 ha         1 723       0.160000
     32 H15          4.0590     0.0000     2.0810 ha         1 723       0.130000
     33 H16          1.7200    -0.0040     2.2100 ha         1 723       0.134000
@<TRIPOS>BOND
     1     1    11 1
     2     1    12 1
     3     2    19 1
     4     3     5 1
     5     3     7 2
     6     3    12 1
     7     4    12 2
     8     5    22 1
     9     6    22 1
    10     7     9 1
    11     7    10 1
    12     8    22 1
    13     9    13 ar
    14     9    17 ar
    15    10    11 ar
    16    10    18 ar
    17    11    21 ar
    18    13    14 ar
    19    14    15 ar
    20    15    16 ar
    21    16    17 ar
    22    18    19 ar
    23    19    20 ar
    24    20    21 ar
    25     1    23 1
    26     5    24 1
    27     5    25 1
    28    13    26 1
    29    14    27 1
    30    15    28 1
    31    16    29 1
    32    17    30 1
    33    18    31 1
    34    20    32 1
    35    21    33 1
@<TRIPOS>SUBSTRUCTURE
     1 723         1 TEMP              0 ****  ****    0 ROOT
