@<TRIPOS>MOLECULE
723
   33    35     1     0     0
SMALL
bcc


@<TRIPOS>ATOM
      1 N            0.0000     0.0000     0.0000 ns         1 723       0.027900
      2 Cl           5.8960    -0.0020    -0.0410 cl         1 723      -0.060400
      3 C1          -0.0610    -0.0010    -2.4020 cc         1 723      -0.052400
      4 O1          -1.9160    -0.0010    -1.1020 o          1 723      -0.665500
      5 C2          -0.8840    -0.0010    -3.6650 c3         1 723      -0.106200
      6 O2          -2.0000    -1.6610    -5.1110 o          1 723      -0.894800
      7 C3           1.3080    -0.0000    -2.4770 cd         1 723      -0.025400
      8 O3          -0.8990    -2.3320    -3.3160 o          1 723      -0.894800
      9 C4           1.9950     0.0000    -3.7880 ca         1 723      -0.005800
     10 C5           2.0760    -0.0010    -1.2220 ca         1 723      -0.027800
     11 C6           1.3800     0.0000     0.0000 ca         1 723      -0.063400
     12 C7          -0.6980    -0.0010    -1.1480 c          1 723       0.600700
     13 C8           1.8690     1.0940    -4.6450 ca         1 723      -0.081000
     14 C9           2.5130     1.0890    -5.8640 ca         1 723      -0.106500
     15 C10          3.2830     0.0020    -6.2390 ca         1 723      -0.113000
     16 C11          3.4120    -1.0870    -5.3940 ca         1 723      -0.106500
     17 C12          2.7780    -1.0910    -4.1690 ca         1 723      -0.081000
     18 C13          3.4720    -0.0010    -1.2300 ca         1 723      -0.057000
     19 C14          4.1600    -0.0020    -0.0370 ca         1 723      -0.105600
     20 C15          3.4720    -0.0020     1.1710 ca         1 723      -0.092000
     21 C16          2.0950     0.0000     1.1940 ca         1 723      -0.153000
     22 C17         -1.2620    -1.4160    -4.0170 c          1 723       0.996600
     23 HN          -0.4910     0.0010     0.8720 hn         1 723       0.164500
     24 H2          -1.7820     0.5850    -3.5110 hc         1 723       0.033700
     25 H2A         -0.3050     0.4310    -4.4730 hc         1 723       0.033700
     26 H8           1.2660     1.9460    -4.3530 ha         1 723       0.110500
     27 H9           2.4160     1.9380    -6.5300 ha         1 723       0.093000
     28 H10          3.7850     0.0020    -7.1990 ha         1 723       0.090000
     29 H11          4.0180    -1.9340    -5.6920 ha         1 723       0.093000
     30 H12          2.8790    -1.9440    -3.5080 ha         1 723       0.110500
     31 H13          4.3080     0.1640    -1.8990 ha         1 723       0.129000
     32 H15          4.0590     0.0000     2.0810 ha         1 723       0.102000
     33 H16          1.7200    -0.0040     2.2100 ha         1 723       0.110000
@<TRIPOS>BOND
     1     1    11 1   
     2     1    12 1   
     3     1    23 1   
     4     2    19 1   
     5     3     5 1   
     6     3     7 2   
     7     3    12 1   
     8     4    12 2   
     9     5    22 1   
    10     5    24 1   
    11     5    25 1   
    12     6    22 1   
    13     7     9 1   
    14     7    10 1   
    15     8    22 1   
    16     9    13 ar  
    17     9    17 ar  
    18    10    11 ar  
    19    10    18 ar  
    20    11    21 ar  
    21    13    14 ar  
    22    13    26 1   
    23    14    15 ar  
    24    14    27 1   
    25    15    16 ar  
    26    15    28 1   
    27    16    17 ar  
    28    16    29 1   
    29    17    30 1   
    30    18    19 ar  
    31    18    31 1   
    32    19    20 ar  
    33    20    21 ar  
    34    20    32 1   
    35    21    33 1   
@<TRIPOS>SUBSTRUCTURE
     1 723         1 TEMP              0 ****  ****    0 ROOT
