@<TRIPOS>MOLECULE
molecule
   35    37     1     0     0
SMALL
bcc


@<TRIPOS>ATOM
      1 N1           0.0000     0.0000     0.0000 n          1 724      -0.439100
      2 N2           1.3980     0.0000     0.0000 na         1 724      -0.061800
      3 C3          -0.4470     0.0000     1.2720 c          1 724       0.708100
      4 N4          -1.2910     2.1160    -3.7860 ns         1 724      -0.584500
      5 C5          -2.0170     1.4850    -2.8420 c          1 724       0.703500
      6 C6          -1.1410     1.4500    -1.6050 c3         1 724      -0.009600
      7 N7           0.0930     2.1280    -2.0370 ns         1 724      -0.584900
      8 C8          -0.0900     2.4800    -3.3220 c          1 724       0.807500
      9 O9           0.7440     3.0620    -3.9880 o          1 724      -0.648500
     10 C11         -1.8010     2.2130    -0.4550 c3         1 724      -0.089100
     11 C12         -0.8470     0.0060    -1.1950 c3         1 724       0.152000
     12 C13          0.7360     0.0000     2.1510 ca         1 724      -0.176600
     13 C14          1.8600     0.0000     1.3100 ca         1 724      -0.090200
     14 C15          3.1320    -0.0010     1.8650 ca         1 724      -0.095000
     15 C16          3.2870    -0.0010     3.2360 ca         1 724      -0.173000
     16 C17          2.1770    -0.0010     4.0720 ca         1 724       0.118100
     17 C18          0.9020     0.0010     3.5350 ca         1 724      -0.066000
     18 O19         -1.6100     0.0010     1.6280 o          1 724      -0.609500
     19 O20          2.3440    -0.0010     5.4220 os         1 724      -0.322900
     20 C21          3.6870    -0.0010     5.9090 c3         1 724       0.127700
     21 HN2          1.7320    -0.8170    -0.4720 hn         1 724       0.226700
     22 HN4         -1.6100     2.2900    -4.7180 hn         1 724       0.364500
     23 HN7          0.9090     2.2940    -1.4810 hn         1 724       0.381500
     24 H11         -2.5830     1.6040    -0.0190 hc         1 724       0.061700
     25 H11A        -2.2290     3.1340    -0.8320 hc         1 724       0.061700
     26 H11B        -1.0590     2.4420     0.2990 hc         1 724       0.061700
     27 H12         -1.7770    -0.5060    -0.9800 h1         1 724       0.082200
     28 H12A        -0.3340    -0.5020    -2.0030 h1         1 724       0.082200
     29 H15          4.0040    -0.0010     1.2210 ha         1 724       0.142000
     30 H16          4.2820    -0.0020     3.6640 ha         1 724       0.146000
     31 H18          0.0370     0.0010     4.1870 ha         1 724       0.165000
     32 H21          3.6780    -0.0010     6.9920 h1         1 724       0.043700
     33 H21A         4.2010     0.8830     5.5510 h1         1 724       0.043700
     34 H21B         4.2010    -0.8860     5.5520 h1         1 724       0.043700
     35 O10         -3.1390     1.0400    -2.9570 o          1 724      -0.571500
@<TRIPOS>BOND
     1     1     2 1
     2     1     3 1
     3     1    11 1
     4     2    13 1
     5     3    12 1
     6     3    18 2
     7     4     5 1
     8     4     8 1
     9     5     6 1
    10     5    35 2
    11     6     7 1
    12     6    10 1
    13     6    11 1
    14     7     8 1
    15     8     9 2
    16    12    13 ar
    17    12    17 ar
    18    13    14 ar
    19    14    15 ar
    20    15    16 ar
    21    16    17 ar
    22    16    19 1
    23    19    20 1
    24     2    21 1
    25     4    22 1
    26     7    23 1
    27    10    24 1
    28    10    25 1
    29    10    26 1
    30    11    27 1
    31    11    28 1
    32    14    29 1
    33    15    30 1
    34    17    31 1
    35    20    32 1
    36    20    33 1
    37    20    34 1
@<TRIPOS>SUBSTRUCTURE
     1 724         1 TEMP              0 ****  ****    0 ROOT
