@<TRIPOS>MOLECULE
725
   57    60     1     0     0
SMALL
bcc


@<TRIPOS>ATOM
      1 C1           0.0000     0.0000     0.0000 cc         1 725       0.378700
      2 C2           1.7800     0.0000     1.3220 ca         1 725      -0.276200
      3 N3           5.6600     0.0020     5.8170 nz         1 725       0.226400
      4 C4           4.2750     0.0000     1.0880 c3         1 725       0.014900
      5 C5           4.6970     1.4430     0.8040 c3         1 725      -0.022400
      6 C6           5.9680     1.4440    -0.0490 c3         1 725       0.173100
      7 C10          8.8140     3.8570    -2.9430 c3         1 725       0.243700
      8 C13          3.1140    -0.0000     3.3170 ca         1 725       0.019400
      9 C14          4.4100     0.0010     5.2500 cc         1 725      -0.050200
     10 C15          2.0700     0.0010     5.5620 c          1 725       0.631100
     11 C16          1.9320    -0.0000     4.0990 ca         1 725      -0.164600
     12 C17          0.6830    -0.0000     3.4870 ca         1 725       0.021000
     13 C18          0.6020    -0.0000     2.0980 ca         1 725       0.158400
     14 O4           1.0910    -0.0000     6.2870 o          1 725      -0.597500
     15 N4           3.3220     0.0010     6.0740 ns         1 725      -0.027400
     16 N2           4.3170     0.0000     3.9450 nd         1 725      -0.346100
     17 N1           1.3670     0.0000     0.0000 na         1 725       0.226700
     18 N5          -0.4470     0.0000     1.2300 nd         1 725      -0.590100
     19 N           -0.7910     0.0060    -1.1300 nu         1 725      -0.425200
     20 C           -0.1720     0.0130    -2.4570 c3         1 725       0.184100
     21 C3           3.0230     0.0000     1.9290 ca         1 725       0.041700
     22 C11          6.4620     2.8890    -0.2760 c3         1 725       0.141100
     23 O3           7.5120     3.2090     0.6410 os         1 725      -0.394600
     24 C12          7.5730     4.5920     0.9940 c3         1 725       0.253700
     25 C9           6.9940     2.8810    -1.7260 c3         1 725       0.118100
     26 O2           8.3880     3.1950    -1.7510 os         1 725      -0.384600
     27 C7           6.7580     1.4310    -2.2040 c3         1 725       0.361900
     28 O            5.6860     0.9360    -1.3710 os         1 725      -0.434600
     29 O1           6.3680     1.4180    -3.5790 os         1 725      -0.404600
     30 C8           6.2370     0.1070    -4.1340 c3         1 725       0.257700
     31 H1           5.8440     0.9010     6.2160 hn         1 725       0.210133
     32 H2           6.3450    -0.1980     5.1160 hn         1 725       0.210133
     33 H3           4.0810    -0.5100     0.1520 hc         1 725       0.033700
     34 H4           5.0680    -0.5100     1.6210 hc         1 725       0.033700
     35 H5           3.9040     1.9530     0.2710 hc         1 725       0.024700
     36 H6           4.8900     1.9530     1.7400 hc         1 725       0.024700
     37 H7           6.7440     0.8520     0.4220 h1         1 725       0.033700
     38 H8           8.1880     4.7240    -3.1180 h1         1 725      -0.004300
     39 H9           8.7310     3.1780    -3.7820 h1         1 725      -0.004300
     40 H10          9.8450     4.1720    -2.8320 h1         1 725      -0.004300
     41 H11         -0.2120     0.1380     4.0820 ha         1 725       0.148000
     42 H12          3.4520     0.0020     7.0660 hn         1 725       0.181500
     43 H13          1.9600    -0.0000    -0.8060 hn         1 725       0.151700
     44 H15         -1.7880    -0.0010    -1.0430 hn         1 725       0.323800
     45 H16          0.4130     0.9170    -2.5790 h1         1 725       0.016033
     46 H17         -0.9440    -0.0230    -3.2160 h1         1 725       0.016033
     47 H18          0.4740    -0.8510    -2.5590 h1         1 725       0.016033
     48 H19          5.6400     3.5880    -0.1800 h1         1 725       0.026700
     49 H20          7.0350     5.1770     0.2580 h1         1 725      -0.008633
     50 H21          7.1240     4.7360     1.9690 h1         1 725      -0.008633
     51 H22          8.6080     4.9120     1.0230 h1         1 725      -0.008633
     52 H23          6.4320     3.5760    -2.3370 h1         1 725       0.039700
     53 H24          7.6520     0.8380    -2.0560 h2         1 725       0.026700
     54 H25          5.3020    -0.3310    -3.8080 h1         1 725      -0.007633
     55 H26          7.0620    -0.5100    -3.7990 h1         1 725      -0.007633
     56 H27          6.2490     0.1700    -5.2150 h1         1 725      -0.007633
     57 H33          5.7020    -0.6960     6.5330 hn         1 725       0.210133
@<TRIPOS>BOND
     1     1    17 1   
     2     1    18 2   
     3     1    19 1   
     4     2    13 ar  
     5     2    17 1   
     6     2    21 ar  
     7     3     9 1   
     8     3    31 1   
     9     3    32 1   
    10     3    57 1   
    11     4     5 1   
    12     4    21 1   
    13     4    33 1   
    14     4    34 1   
    15     5     6 1   
    16     5    35 1   
    17     5    36 1   
    18     6    22 1   
    19     6    28 1   
    20     6    37 1   
    21     7    26 1   
    22     7    38 1   
    23     7    39 1   
    24     7    40 1   
    25     8    11 ar  
    26     8    16 1   
    27     8    21 ar  
    28     9    15 1   
    29     9    16 2   
    30    10    11 1   
    31    10    14 2   
    32    10    15 1   
    33    11    12 ar  
    34    12    13 ar  
    35    12    41 1   
    36    13    18 1   
    37    15    42 1   
    38    17    43 1   
    39    19    20 1   
    40    19    44 1   
    41    20    45 1   
    42    20    46 1   
    43    20    47 1   
    44    22    23 1   
    45    22    25 1   
    46    22    48 1   
    47    23    24 1   
    48    24    49 1   
    49    24    50 1   
    50    24    51 1   
    51    25    26 1   
    52    25    27 1   
    53    25    52 1   
    54    27    28 1   
    55    27    29 1   
    56    27    53 1   
    57    29    30 1   
    58    30    54 1   
    59    30    55 1   
    60    30    56 1   
@<TRIPOS>SUBSTRUCTURE
     1 725         1 TEMP              0 ****  ****    0 ROOT
