@<TRIPOS>MOLECULE
molecule
   57    60     1     0     0
SMALL
bcc


@<TRIPOS>ATOM
      1 C1           0.0000     0.0000     0.0000 cc         1 725       0.717700
      2 C2           1.7800     0.0000     1.3220 ca         1 725      -0.089200
      3 N3           5.6600     0.0020     5.8170 nz         1 725      -0.725600
      4 C4           4.2750     0.0000     1.0880 c3         1 725      -0.040100
      5 C5           4.6970     1.4430     0.8040 c3         1 725      -0.070400
      6 C6           5.9680     1.4440    -0.0490 c3         1 725       0.137100
      7 C10          8.8140     3.8570    -2.9430 c3         1 725       0.120700
      8 C13          3.1140    -0.0000     3.3170 ca         1 725       0.101400
      9 C14          4.4100     0.0010     5.2500 cd         1 725       0.419800
     10 C15          2.0700     0.0010     5.5620 c          1 725       0.724100
     11 C16          1.9320    -0.0000     4.0990 ca         1 725      -0.164600
     12 C17          0.6830    -0.0000     3.4870 ca         1 725      -0.021000
     13 C18          0.6020    -0.0000     2.0980 ca         1 725       0.177400
     14 O4           1.0910    -0.0000     6.2870 o          1 725      -0.558500
     15 N4           3.3220     0.0010     6.0740 ns         1 725      -0.486400
     16 N2           4.3170     0.0000     3.9450 nc         1 725      -0.535100
     17 N1           1.3670     0.0000     0.0000 na         1 725      -0.288300
     18 N5          -0.4470     0.0000     1.2300 nd         1 725      -0.658100
     19 N           -0.7910     0.0060    -1.1300 nu         1 725      -0.856200
     20 C           -0.1720     0.0130    -2.4570 c3         1 725       0.214100
     21 C3           3.0230     0.0000     1.9290 ca         1 725       0.012700
     22 C11          6.4620     2.8890    -0.2760 c3         1 725       0.116100
     23 O3           7.5120     3.2090     0.6410 os         1 725      -0.407600
     24 C12          7.5730     4.5920     0.9940 c3         1 725       0.130700
     25 C9           6.9940     2.8810    -1.7260 c3         1 725       0.098100
     26 O2           8.3880     3.1950    -1.7510 os         1 725      -0.399600
     27 C7           6.7580     1.4310    -2.2040 c3         1 725       0.306900
     28 O            5.6860     0.9360    -1.3710 os         1 725      -0.443600
     29 O1           6.3680     1.4180    -3.5790 os         1 725      -0.411600
     30 C8           6.2370     0.1070    -4.1340 c3         1 725       0.129700
     31 H1           5.8440     0.9010     6.2160 hn         1 725       0.471133
     32 H2           6.3450    -0.1980     5.1160 hn         1 725       0.471133
     33 H3           4.0810    -0.5100     0.1520 hc         1 725       0.066700
     34 H4           5.0680    -0.5100     1.6210 hc         1 725       0.066700
     35 H5           3.9040     1.9530     0.2710 hc         1 725       0.057200
     36 H6           4.8900     1.9530     1.7400 hc         1 725       0.057200
     37 H7           6.7440     0.8520     0.4220 h1         1 725       0.067700
     38 H8           8.1880     4.7240    -3.1180 h1         1 725       0.039367
     39 H9           8.7310     3.1780    -3.7820 h1         1 725       0.039367
     40 H10          9.8450     4.1720    -2.8320 h1         1 725       0.039367
     41 H11         -0.2120     0.1380     4.0820 ha         1 725       0.186000
     42 H12          3.4520     0.0020     7.0660 hn         1 725       0.337500
     43 H13          1.9600    -0.0000    -0.8060 hn         1 725       0.322700
     44 H15         -1.7880    -0.0010    -1.0430 hn         1 725       0.486800
     45 H16          0.4130     0.9170    -2.5790 h1         1 725       0.050367
     46 H17         -0.9440    -0.0230    -3.2160 h1         1 725       0.050367
     47 H18          0.4740    -0.8510    -2.5590 h1         1 725       0.050367
     48 H19          5.6400     3.5880    -0.1800 h1         1 725       0.058700
     49 H20          7.0350     5.1770     0.2580 h1         1 725       0.035033
     50 H21          7.1240     4.7360     1.9690 h1         1 725       0.035033
     51 H22          8.6080     4.9120     1.0230 h1         1 725       0.035033
     52 H23          6.4320     3.5760    -2.3370 h1         1 725       0.072700
     53 H24          7.6520     0.8380    -2.0560 h2         1 725       0.066700
     54 H25          5.3020    -0.3310    -3.8080 h1         1 725       0.037700
     55 H26          7.0620    -0.5100    -3.7990 h1         1 725       0.037700
     56 H27          6.2490     0.1700    -5.2150 h1         1 725       0.037700
     57 H33          5.7020    -0.6960     6.5330 hn         1 725       0.471133
@<TRIPOS>BOND
     1    20    19 1   
     2    30    29 1   
     3    29    27 1   
     4    19     1 1   
     5     7    26 1   
     6    27    25 1   
     7    27    28 1   
     8    25    26 1   
     9    25    22 1   
    10     1    17 1   
    11     1    18 2   
    12    28     6 1   
    13    17     2 1   
    14    22     6 1   
    15    22    23 1   
    16    18    13 1   
    17     6     5 1   
    18     2    13 ar  
    19     2    21 ar  
    20     5     4 1   
    21    23    24 1   
    22    13    12 ar  
    23     4    21 1   
    24    21     8 ar  
    25    12    11 ar  
    26     8    11 ar  
    27     8    16 1   
    28    11    10 1   
    29    16     9 2   
    30    10    14 2   
    31    10    15 1   
    32     9    15 1   
    33     9     3 1   
    34     3    31 1   
    35     3    32 1   
    36     4    33 1   
    37     4    34 1   
    38     5    35 1   
    39     5    36 1   
    40     6    37 1   
    41     7    38 1   
    42     7    39 1   
    43     7    40 1   
    44    12    41 1   
    45    15    42 1   
    46    17    43 1   
    47    19    44 1   
    48    20    45 1   
    49    20    46 1   
    50    20    47 1   
    51    22    48 1   
    52    24    49 1   
    53    24    50 1   
    54    24    51 1   
    55    25    52 1   
    56    27    53 1   
    57    30    54 1   
    58    30    55 1   
    59    30    56 1   
    60    57     3 1   
@<TRIPOS>SUBSTRUCTURE
     1 725         1 TEMP              0 ****  ****    0 ROOT
