@<TRIPOS>MOLECULE
molecule
   64    67     1     0     0
SMALL
bcc


@<TRIPOS>ATOM
      1 O            0.0000     0.0000     0.0000 o          1 726      -0.567500
      2 C1           6.3510     0.0000     0.8760 cc         1 726       0.673700
      3 C2           4.1380     0.0010     0.7540 ca         1 726      -0.079200
      4 C5           0.4060     0.0010     1.1480 c          1 726       0.727100
      5 C8           3.5970     0.0020     3.1260 ca         1 726       0.032700
      6 N1           5.3040     0.0000     0.0000 na         1 726      -0.284300
      7 C3           2.7980     0.0000     0.4290 ca         1 726      -0.037000
      8 N2          -0.4510     0.0010     2.1940 ns         1 726      -0.487400
      9 C4           1.8430     0.0010     1.4450 ca         1 726      -0.178600
     10 N4           1.2910     0.0040     3.7730 nc         1 726      -0.528100
     11 C6           0.0170     0.0030     3.4770 cd         1 726       0.431800
     12 N5           5.9040     0.0010     2.1080 nd         1 726      -0.661100
     13 C7           2.2450     0.0020     2.8050 ca         1 726       0.114400
     14 C9           4.0330     0.0020     4.5680 c3         1 726      -0.034100
     15 C10          4.1820     1.4440     5.0550 c3         1 726      -0.063400
     16 C11          4.6250     1.4450     6.5200 c3         1 726       0.150100
     17 C12          6.4340     0.8030     7.9580 c3         1 726       0.306900
     18 C20          4.5470     0.0020     2.1060 ca         1 726       0.160400
     19 C            8.0580    -0.0120    -0.8980 c3         1 726       0.155100
     20 C18          4.6550     2.8830     7.0440 c3         1 726       0.124100
     21 O5           3.3380     3.4350     6.9960 os         1 726      -0.450600
     22 C19          3.3080     4.8500     6.7970 c3         1 726       0.131700
     23 C16          5.1570     2.8800     8.4910 c3         1 726       0.127100
     24 O4           5.2550     4.2250     8.9650 os         1 726      -0.444600
     25 C17          5.0450     4.3620    10.3730 c3         1 726       0.131700
     26 C14          6.5350     2.2160     8.5410 c3         1 726       0.109100
     27 O3           6.9820     2.1420     9.8960 os         1 726      -0.421600
     28 C15          8.4030     2.1960    10.0440 c3         1 726       0.124700
     29 O1           5.9320     0.8750     6.6220 os         1 726      -0.434600
     30 O2           5.5460     0.0200     8.7600 os         1 726      -0.431600
     31 H1           5.3660    -0.0010    -0.9990 hn         1 726       0.319700
     32 H2           2.4910     0.1170    -0.6030 ha         1 726       0.167000
     33 H3          -0.4460    -0.3050     5.3460 hn         1 726       0.472467
     34 H4          -1.2460     0.9310     4.6360 hn         1 726       0.472467
     35 H5          -1.4380     0.0010     2.0270 hn         1 726       0.337500
     36 H7           3.2910    -0.5080     5.1700 hc         1 726       0.072200
     37 H8           4.9840    -0.5100     4.6570 hc         1 726       0.072200
     38 H9           6.1990    -1.5460     7.5890 h1         1 726       0.034700
     39 H10          5.9140    -1.9370     9.2910 h1         1 726       0.034700
     40 H11          4.5440    -1.6910     8.1990 h1         1 726       0.034700
     41 H12          4.9240     1.9540     4.4530 hc         1 726       0.061700
     42 H13          3.2310     1.9560     4.9660 hc         1 726       0.061700
     43 H14          3.9310     0.8610     7.1130 h1         1 726       0.058700
     44 H15          7.4160     0.3470     7.9490 h2         1 726       0.082700
     45 H16          8.3900     0.0020     1.2250 hn         1 726       0.481800
     46 H17          7.8340     1.0470    -0.8600 h1         1 726       0.105367
     47 H18          8.7200    -0.3370    -0.1050 h1         1 726       0.105367
     48 H19          7.3220    -0.6880    -1.3170 h1         1 726       0.105367
     49 H20          5.3240     3.4750     6.4320 h1         1 726       0.061700
     50 H21          3.2770     5.3980     7.7300 h1         1 726       0.041700
     51 H22          2.5350     5.1520     6.1000 h1         1 726       0.041700
     52 H23          4.2940     4.8530     6.3470 h1         1 726       0.041700
     53 H24          4.4660     2.3220     9.1110 h1         1 726       0.077700
     54 H25          5.9700     4.3180    10.9350 h1         1 726       0.041700
     55 H26          4.4380     5.2250    10.6180 h1         1 726       0.041700
     56 H27          4.4850     3.4350    10.4260 h1         1 726       0.041700
     57 H28          7.2370     2.7970     7.9540 h1         1 726       0.068700
     58 H29          8.7080     2.8200    10.8760 h1         1 726       0.039367
     59 H30          8.8550     1.2110    10.0620 h1         1 726       0.039367
     60 H31          8.5300     2.6910     9.0890 h1         1 726       0.039367
     61 N3          -0.8920     0.0040     4.5050 nz         1 726      -0.726600
     62 H33         -1.6930    -0.5360     4.2420 hn         1 726       0.472467
     63 N            7.6810    -0.0060     0.5180 nu         1 726      -0.924200
     64 C13          5.5510    -1.3730     8.4400 c3         1 726       0.125700
@<TRIPOS>BOND
     1    28    27 1   
     2    27    26 1   
     3    25    24 1   
     4    24    23 1   
     5    26    23 1   
     6    26    17 1   
     7    23    20 1   
     8    30    17 1   
     9    30    64 1   
    10    17    29 1   
    11    20    21 1   
    12    20    16 1   
    13    29    16 1   
    14    21    22 1   
    15    16    15 1   
    16    15    14 1   
    17    14     5 1   
    18    19    63 1   
    19    12    18 1   
    20    12     2 2   
    21     5    18 ar  
    22     5    13 ar  
    23    63     2 1   
    24    18     3 ar  
    25    10    13 1   
    26    10    11 2   
    27     2     6 1   
    28    13     9 ar  
    29    61    11 1   
    30    11     8 1   
    31     3     6 1   
    32     3     7 ar  
    33     9     7 ar  
    34     9     4 1   
    35     8     4 1   
    36     4     1 2   
    37     6    31 1   
    38     7    32 1   
    39    61    33 1   
    40    61    34 1   
    41     8    35 1   
    42    14    36 1   
    43    14    37 1   
    44    64    38 1   
    45    64    39 1   
    46    64    40 1   
    47    15    41 1   
    48    15    42 1   
    49    16    43 1   
    50    17    44 1   
    51    63    45 1   
    52    19    46 1   
    53    19    47 1   
    54    19    48 1   
    55    20    49 1   
    56    22    50 1   
    57    22    51 1   
    58    22    52 1   
    59    23    53 1   
    60    25    54 1   
    61    25    55 1   
    62    25    56 1   
    63    26    57 1   
    64    28    58 1   
    65    28    59 1   
    66    28    60 1   
    67    62    61 1   
@<TRIPOS>SUBSTRUCTURE
     1 726         1 TEMP              0 ****  ****    0 ROOT
