@<TRIPOS>MOLECULE
727
   42    45     1     0     0
SMALL
bcc


@<TRIPOS>ATOM
      1 N1           0.0000     0.0000     0.0000 n          1 727      -0.202100
      2 N2           1.3980     0.0000     0.0000 na         1 727       0.126200
      3 C3          -0.4470     0.0010     1.2720 c          1 727       0.656100
      4 N4           0.2750     3.1840    -1.1470 ns         1 727      -0.155500
      5 C5           0.1350     2.1600    -2.0130 c          1 727       0.627500
      6 C6          -1.1420     1.4500    -1.6050 c3         1 727      -0.065300
      7 N7          -1.6170     2.2300    -0.4490 ns         1 727      -0.197900
      8 C8          -0.7250     3.2200    -0.2600 c          1 727       0.603500
      9 O9          -0.8170     4.0530     0.6210 o          1 727      -0.687500
     10 C11         -2.1510     1.4920    -2.7230 ca         1 727      -0.106300
     11 C12         -0.8480     0.0060    -1.1950 c3         1 727       0.101000
     12 C13          0.7370     0.0000     2.1510 ca         1 727      -0.188600
     13 C14          1.8600     0.0000     1.3090 ca         1 727      -0.175200
     14 C15          3.1320    -0.0010     1.8640 ca         1 727      -0.056000
     15 C16          3.2880    -0.0020     3.2350 ca         1 727      -0.162000
     16 C17          2.1780    -0.0020     4.0710 ca         1 727       0.123100
     17 C18          0.9020    -0.0000     3.5350 ca         1 727      -0.028000
     18 O19         -1.6100     0.0010     1.6280 o          1 727      -0.657500
     19 O20          2.3450    -0.0030     5.4210 os         1 727      -0.302900
     20 C21          3.6890    -0.0040     5.9070 c3         1 727       0.244700
     21 C22         -3.0400     2.5470    -2.8140 ca         1 727      -0.086500
     22 C23         -3.9660     2.5830    -3.8390 ca         1 727      -0.093000
     23 C24         -4.0030     1.5660    -4.7730 ca         1 727      -0.088000
     24 C25         -3.1150     0.5110    -4.6830 ca         1 727      -0.093000
     25 C26         -2.1860     0.4760    -3.6600 ca         1 727      -0.086500
     26 HN2          1.7320    -0.8170    -0.4720 hn         1 727       0.110700
     27 HN4          1.0340     3.8370    -1.1670 hn         1 727       0.207500
     28 HN7         -2.4420     2.0580     0.0910 hn         1 727       0.239500
     29 H12         -1.7790    -0.5050    -0.9800 h1         1 727       0.050200
     30 H12A        -0.3360    -0.5010    -2.0030 h1         1 727       0.050200
     31 H15          4.0030    -0.0020     1.2200 ha         1 727       0.110000
     32 H16          4.2840    -0.0040     3.6630 ha         1 727       0.124000
     33 H18          0.0370     0.0000     4.1870 ha         1 727       0.130000
     34 H21          4.2030     0.8800     5.5510 h1         1 727      -0.001633
     35 H21A         3.6810    -0.0050     6.9910 h1         1 727      -0.001633
     36 H21B         4.2020    -0.8890     5.5490 h1         1 727      -0.001633
     37 H22         -3.0100     3.3450    -2.0820 ha         1 727       0.112500
     38 H23         -4.6620     3.4100    -3.9100 ha         1 727       0.106500
     39 H24         -4.7310     1.5940    -5.5760 ha         1 727       0.105000
     40 H25         -3.1430    -0.2860    -5.4170 ha         1 727       0.106500
     41 H26         -1.4890    -0.3500    -3.5890 ha         1 727       0.112500
     42 O10          0.8740     1.8670    -2.9270 o          1 727      -0.611500
@<TRIPOS>BOND
     1     1     2 1   
     2     1     3 1   
     3     1    11 1   
     4     2    13 1   
     5     2    26 1   
     6     3    12 1   
     7     3    18 2   
     8     4     5 1   
     9     4     8 1   
    10     4    27 1   
    11     5     6 1   
    12     5    42 2   
    13     6     7 1   
    14     6    10 1   
    15     6    11 1   
    16     7     8 1   
    17     7    28 1   
    18     8     9 2   
    19    10    21 ar  
    20    10    25 ar  
    21    11    29 1   
    22    11    30 1   
    23    12    13 ar  
    24    12    17 ar  
    25    13    14 ar  
    26    14    15 ar  
    27    14    31 1   
    28    15    16 ar  
    29    15    32 1   
    30    16    17 ar  
    31    16    19 1   
    32    17    33 1   
    33    19    20 1   
    34    20    34 1   
    35    20    35 1   
    36    20    36 1   
    37    21    22 ar  
    38    21    37 1   
    39    22    23 ar  
    40    22    38 1   
    41    23    24 ar  
    42    23    39 1   
    43    24    25 ar  
    44    24    40 1   
    45    25    41 1   
@<TRIPOS>SUBSTRUCTURE
     1 727         1 TEMP              0 ****  ****    0 ROOT
