@<TRIPOS>MOLECULE
728
   50    52     1     0     0
SMALL
bcc


@<TRIPOS>ATOM
      1 CAA          0.0000     0.0000     0.0000 ca         1 728      -0.079000
      2 CAB          1.3810     0.0000     0.0000 ca         1 728      -0.116500
      3 CAC          2.0740     0.0000     1.2030 ca         1 728       0.038600
      4 NAG          3.4710     0.0010     1.2070 nv         1 728      -0.563200
      5 CAD          1.3750     0.0010     2.4040 ca         1 728      -0.116500
      6 CAE         -0.0060     0.0020     2.3970 ca         1 728      -0.079000
      7 CAF         -0.6930     0.0070     1.1970 ca         1 728      -0.132300
      8 CAH         -2.2000     0.0070     1.1930 c3         1 728       0.129300
      9 NAI         -2.6880     1.3880     1.1970 ns         1 728      -0.216900
     10 CAJ         -4.0130     1.6350     1.1950 c          1 728       0.577100
     11 OAL         -4.8040     0.7110     1.1890 o          1 728      -0.720100
     12 N           -4.4620     2.9060     1.2000 ns         1 728      -0.213900
     13 CA          -5.9010     3.1740     1.1970 c3         1 728      -0.002000
     14 C           -6.1360     4.6630     1.2020 c          1 728       0.590100
     15 O           -5.1920     5.4250     1.2080 o          1 728      -0.645100
     16 NAP         -7.3930     5.1480     1.2010 n          1 728      -0.153800
     17 CAQ         -8.6260     4.3390     1.1950 c3         1 728       0.040000
     18 CAR         -9.7080     5.2620     1.8090 c3         1 728      -0.031400
     19 CAS         -9.3040     6.6430     1.2310 c3         1 728      -0.032400
     20 CAT         -7.7630     6.5710     1.2120 c3         1 728       0.087000
     21 CAU         -7.2340     7.2410    -0.0300 ca         1 728      -0.074300
     22 CAX         -6.9780     6.4920    -1.1640 ca         1 728      -0.089000
     23 CAW         -6.4920     7.1060    -2.3030 ca         1 728      -0.087000
     24 CAV         -6.2620     8.4690    -2.3090 ca         1 728      -0.096000
     25 CAY         -6.5170     9.2180    -1.1770 ca         1 728      -0.079000
     26 CAZ         -7.0090     8.6050    -0.0380 ca         1 728       0.051100
     27 Br          -7.3580     9.6300     1.5120 br         1 728      -0.132100
     28 H1          -0.5410     0.0020    -0.9390 ha         1 728       0.107000
     29 H2           1.9230    -0.0050    -0.9380 ha         1 728       0.109500
     30 H3           3.9710     0.8680     1.2080 hn         1 728       0.274300
     31 H4           3.9710    -0.8660     1.2090 hn         1 728       0.274300
     32 H5           1.9120    -0.0010     3.3450 ha         1 728       0.109500
     33 H6          -0.5520     0.0050     3.3320 ha         1 728       0.107000
     34 H7          -2.5590    -0.5000     0.3050 h1         1 728       0.026700
     35 H8          -2.5630    -0.5070     2.0740 h1         1 728       0.026700
     36 H9          -2.0370     2.1490     1.2020 hn         1 728       0.173500
     37 H10         -3.8110     3.6660     1.2160 hn         1 728       0.197500
     38 H11         -6.3470     2.7420     0.3090 h1         1 728       0.037700
     39 H12         -6.3520     2.7350     2.0780 h1         1 728       0.037700
     40 H13         -8.8930     4.0690     0.1800 h1         1 728       0.023200
     41 H14         -8.4970     3.4530     1.8060 h1         1 728       0.023200
     42 H15        -10.6970     4.9760     1.4700 hc         1 728       0.028200
     43 H16         -9.6460     5.2630     2.8900 hc         1 728       0.028200
     44 H17         -9.6930     6.7660     0.2270 hc         1 728       0.033200
     45 H18         -9.6410     7.4420     1.8810 hc         1 728       0.033200
     46 H19         -7.3600     7.0490     2.0970 h1         1 728       0.055700
     47 H20         -7.1580     5.4240    -1.1590 ha         1 728       0.110000
     48 H21         -6.2920     6.5190    -3.1910 ha         1 728       0.105000
     49 H22         -5.8790     8.9490    -3.2010 ha         1 728       0.106000
     50 H23         -6.3390    10.2870    -1.1830 ha         1 728       0.116000
@<TRIPOS>BOND
     1     1     2 ar  
     2     1     7 ar  
     3     1    28 1   
     4     2     3 ar  
     5     2    29 1   
     6     3     4 1   
     7     3     5 ar  
     8     4    30 1   
     9     4    31 1   
    10     5     6 ar  
    11     5    32 1   
    12     6     7 ar  
    13     6    33 1   
    14     7     8 1   
    15     8     9 1   
    16     8    34 1   
    17     8    35 1   
    18     9    10 1   
    19     9    36 1   
    20    10    11 2   
    21    10    12 1   
    22    12    13 1   
    23    12    37 1   
    24    13    14 1   
    25    13    38 1   
    26    13    39 1   
    27    14    15 2   
    28    14    16 1   
    29    16    17 1   
    30    16    20 1   
    31    17    18 1   
    32    17    40 1   
    33    17    41 1   
    34    18    19 1   
    35    18    42 1   
    36    18    43 1   
    37    19    20 1   
    38    19    44 1   
    39    19    45 1   
    40    20    21 1   
    41    20    46 1   
    42    21    22 ar  
    43    21    26 ar  
    44    22    23 ar  
    45    22    47 1   
    46    23    24 ar  
    47    23    48 1   
    48    24    25 ar  
    49    24    49 1   
    50    25    26 ar  
    51    25    50 1   
    52    26    27 1   
@<TRIPOS>SUBSTRUCTURE
     1 728         1 TEMP              0 ****  ****    0 ROOT
