@<TRIPOS>MOLECULE
molecule
   50    52     1     0     0
SMALL
bcc


@<TRIPOS>ATOM
      1 CAA          0.0000     0.0000     0.0000 ca         1 728      -0.107000
      2 CAB          1.3810     0.0000     0.0000 ca         1 728      -0.148000
      3 CAC          2.0740     0.0000     1.2030 ca         1 728       0.173600
      4 NAG          3.4710     0.0010     1.2070 nv         1 728      -0.993200
      5 CAD          1.3750     0.0010     2.4040 ca         1 728      -0.148000
      6 CAE         -0.0060     0.0020     2.3970 ca         1 728      -0.107000
      7 CAF         -0.6930     0.0070     1.1970 ca         1 728      -0.129300
      8 CAH         -2.2000     0.0070     1.1930 c3         1 728       0.181300
      9 NAI         -2.6880     1.3880     1.1970 ns         1 728      -0.599900
     10 CAJ         -4.0130     1.6350     1.1950 c          1 728       0.783100
     11 OAL         -4.8040     0.7110     1.1890 o          1 728      -0.670100
     12 N           -4.4620     2.9060     1.2000 ns         1 728      -0.597900
     13 CA          -5.9010     3.1740     1.1970 c3         1 728       0.064000
     14 C           -6.1360     4.6630     1.2020 c          1 728       0.663100
     15 O           -5.1920     5.4250     1.2080 o          1 728      -0.602100
     16 NAP         -7.3930     5.1480     1.2010 n          1 728      -0.493800
     17 CAQ         -8.6260     4.3390     1.1950 c3         1 728       0.088000
     18 CAR         -9.7080     5.2620     1.8090 c3         1 728      -0.096400
     19 CAS         -9.3040     6.6430     1.2310 c3         1 728      -0.087400
     20 CAT         -7.7630     6.5710     1.2120 c3         1 728       0.155000
     21 CAU         -7.2340     7.2410    -0.0300 ca         1 728      -0.062300
     22 CAX         -6.9780     6.4920    -1.1640 ca         1 728      -0.109000
     23 CAW         -6.4920     7.1060    -2.3030 ca         1 728      -0.113000
     24 CAV         -6.2620     8.4690    -2.3090 ca         1 728      -0.127000
     25 CAY         -6.5170     9.2180    -1.1770 ca         1 728      -0.099000
     26 CAZ         -7.0090     8.6050    -0.0380 ca         1 728      -0.009900
     27 Br          -7.3580     9.6300     1.5120 br         1 728      -0.100100
     28 H1          -0.5410     0.0020    -0.9390 ha         1 728       0.135000
     29 H2           1.9230    -0.0050    -0.9380 ha         1 728       0.137500
     30 H3           3.9710     0.8680     1.2080 hn         1 728       0.428800
     31 H4           3.9710    -0.8660     1.2090 hn         1 728       0.428800
     32 H5           1.9120    -0.0010     3.3450 ha         1 728       0.137500
     33 H6          -0.5520     0.0050     3.3320 ha         1 728       0.135000
     34 H7          -2.5590    -0.5000     0.3050 h1         1 728       0.057200
     35 H8          -2.5630    -0.5070     2.0740 h1         1 728       0.057200
     36 H9          -2.0370     2.1490     1.2020 hn         1 728       0.314500
     37 H10         -3.8110     3.6660     1.2160 hn         1 728       0.334500
     38 H11         -6.3470     2.7420     0.3090 h1         1 728       0.069700
     39 H12         -6.3520     2.7350     2.0780 h1         1 728       0.069700
     40 H13         -8.8930     4.0690     0.1800 h1         1 728       0.050700
     41 H14         -8.4970     3.4530     1.8060 h1         1 728       0.050700
     42 H15        -10.6970     4.9760     1.4700 hc         1 728       0.059700
     43 H16         -9.6460     5.2630     2.8900 hc         1 728       0.059700
     44 H17         -9.6930     6.7660     0.2270 hc         1 728       0.064700
     45 H18         -9.6410     7.4420     1.8810 hc         1 728       0.064700
     46 H19         -7.3600     7.0490     2.0970 h1         1 728       0.086700
     47 H20         -7.1580     5.4240    -1.1590 ha         1 728       0.138000
     48 H21         -6.2920     6.5190    -3.1910 ha         1 728       0.134000
     49 H22         -5.8790     8.9490    -3.2010 ha         1 728       0.135000
     50 H23         -6.3390    10.2870    -1.1830 ha         1 728       0.143000
@<TRIPOS>BOND
     1    27    26 1
     2    25    26 ar
     3    25    24 ar
     4    26    21 ar
     5    24    23 ar
     6    21    20 1
     7    21    22 ar
     8    20    19 1
     9    20    16 1
    10    19    18 1
    11    11    10 2
    12    13    12 1
    13    13    14 1
    14    23    22 ar
    15    10    12 1
    16    10     9 1
    17     8     9 1
    18     8     7 1
    19    16    14 1
    20    16    17 1
    21    18    17 1
    22    14    15 2
    23     7     6 ar
    24     7     1 ar
    25     6     5 ar
    26     1     2 ar
    27     5     3 ar
    28     2     3 ar
    29     3     4 1
    30     1    28 1
    31     2    29 1
    32     4    30 1
    33     4    31 1
    34     5    32 1
    35     6    33 1
    36     8    34 1
    37     8    35 1
    38     9    36 1
    39    12    37 1
    40    13    38 1
    41    13    39 1
    42    17    40 1
    43    17    41 1
    44    18    42 1
    45    18    43 1
    46    19    44 1
    47    19    45 1
    48    20    46 1
    49    22    47 1
    50    23    48 1
    51    24    49 1
    52    25    50 1
@<TRIPOS>SUBSTRUCTURE
     1 728         1 TEMP              0 ****  ****    0 ROOT
