@<TRIPOS>MOLECULE
72C
   58    62     1     0     0
SMALL
bcc


@<TRIPOS>ATOM
      1 C10          0.0000     0.0000     0.0000 c3         1 72C      -0.020400
      2 C15          4.6590     0.0000     0.0000 c3         1 72C       0.355600
      3 C14          3.2500    -0.6670     1.6710 c3         1 72C       0.119100
      4 C13          1.8420     0.1940     5.0370 c3         1 72C       0.256700
      5 C12          2.4520     0.1370     2.7200 c3         1 72C       0.379900
      6 C11          1.2650     0.4180     0.7510 c3         1 72C       0.171100
      7 C8          -2.3760     0.5700    -0.4210 ca         1 72C       0.050700
      8 C9          -1.1300     0.9810     0.3200 c3         1 72C       0.017900
      9 N1          -5.1360    -1.5540     0.3230 na         1 72C       0.237700
     10 O3           4.5060     0.0000     1.4350 os         1 72C      -0.392600
     11 C1          -4.3960    -1.6680     1.4650 cc         1 72C       0.369700
     12 C2          -4.4530    -0.6920    -0.5240 ca         1 72C      -0.255200
     13 C3          -4.7060    -0.2070    -1.7900 ca         1 72C       0.016000
     14 C4          -3.7970     0.6640    -2.3880 ca         1 72C      -0.183600
     15 C5          -4.0220     1.2000    -3.7360 c          1 72C       0.637100
     16 C6          -1.9830     2.3700    -3.5100 cc         1 72C      -0.037200
     17 C7          -2.6230     1.0570    -1.7000 ca         1 72C       0.034400
     18 O           -5.0120     0.9010    -4.3770 o          1 72C      -0.606500
     19 N2          -3.0890     2.0410    -4.2400 ns         1 72C      -0.029400
     20 N3          -1.0650     3.2270    -4.0650 nz         1 72C       0.223400
     21 N4          -1.7560     1.9080    -2.3070 nd         1 72C      -0.341100
     22 C19         -3.2860    -0.3060     0.1710 ca         1 72C       0.127400
     23 N5          -3.3130    -0.9360     1.3730 nd         1 72C      -0.589100
     24 N           -4.7390    -2.4370     2.5550 nu         1 72C      -0.432200
     25 C           -5.9800    -3.2150     2.5410 c3         1 72C       0.186100
     26 C18          2.4520    -0.4840     0.3480 c3         1 72C       0.112100
     27 O4           3.3340     0.2680    -0.5090 os         1 72C      -0.421600
     28 C16          5.1500    -1.3650    -0.4840 c3         1 72C      -0.023100
     29 C17          5.6300     1.1010    -0.4330 c3         1 72C      -0.023100
     30 O1           1.1070     0.2000     2.1950 os         1 72C      -0.421600
     31 O2           2.4650    -0.5380     3.9790 os         1 72C      -0.397600
     32 H1           0.1940     0.0070    -1.0660 hc         1 72C       0.027200
     33 H2          -0.2900    -0.9980     0.3070 hc         1 72C       0.027200
     34 H3           3.3720    -1.7080     1.9440 h1         1 72C       0.059700
     35 H4           0.7670     0.0820     4.9690 h1         1 72C      -0.006300
     36 H5           2.1860    -0.1870     5.9910 h1         1 72C      -0.006300
     37 H6           2.1020     1.2430     4.9520 h1         1 72C      -0.006300
     38 H7           2.8620     1.1350     2.8180 h2         1 72C       0.023700
     39 H8           1.5010     1.4560     0.5540 h1         1 72C       0.031700
     40 H9          -0.8400     1.9780     0.0130 hc         1 72C       0.041700
     41 H10         -1.3240     0.9730     1.3850 hc         1 72C       0.041700
     42 H11         -6.0080    -2.0080     0.1320 hn         1 72C       0.147700
     43 H12         -5.6580    -0.4090    -2.2670 ha         1 72C       0.134000
     44 H13         -3.2110     2.4250    -5.1560 hn         1 72C       0.182500
     45 H14         -1.5370     3.8910    -4.6460 hn         1 72C       0.212133
     46 H15         -0.5750     3.7090    -3.3370 hn         1 72C       0.212133
     47 H17         -4.1370    -2.4690     3.3540 hn         1 72C       0.323800
     48 H18         -5.9500    -3.9280     1.7260 h1         1 72C       0.014367
     49 H19         -6.8230    -2.5480     2.4060 h1         1 72C       0.014367
     50 H20         -6.0850    -3.7440     3.4800 h1         1 72C       0.014367
     51 H21          2.1390    -1.4260    -0.0880 h1         1 72C       0.047700
     52 H22          4.8480    -2.1280     0.2220 hc         1 72C       0.021367
     53 H23          6.2300    -1.3520    -0.5630 hc         1 72C       0.021367
     54 H24          4.7190    -1.5800    -1.4550 hc         1 72C       0.021367
     55 H25          6.5950     0.9330     0.0290 hc         1 72C       0.021367
     56 H26          5.2440     2.0650    -0.1240 hc         1 72C       0.021367
     57 H27          5.7370     1.0840    -1.5110 hc         1 72C       0.021367
     58 H33         -0.4200     2.7070    -4.6260 hn         1 72C       0.212133
@<TRIPOS>BOND
     1     1     6 1   
     2     1     8 1   
     3     1    32 1   
     4     1    33 1   
     5     2    10 1   
     6     2    27 1   
     7     2    28 1   
     8     2    29 1   
     9     3     5 1   
    10     3    10 1   
    11     3    26 1   
    12     3    34 1   
    13     4    31 1   
    14     4    35 1   
    15     4    36 1   
    16     4    37 1   
    17     5    30 1   
    18     5    31 1   
    19     5    38 1   
    20     6    26 1   
    21     6    30 1   
    22     6    39 1   
    23     7     8 1   
    24     7    17 ar  
    25     7    22 ar  
    26     8    40 1   
    27     8    41 1   
    28     9    11 1   
    29     9    12 1   
    30     9    42 1   
    31    11    23 2   
    32    11    24 1   
    33    12    13 ar  
    34    12    22 ar  
    35    13    14 ar  
    36    13    43 1   
    37    14    15 1   
    38    14    17 ar  
    39    15    18 2   
    40    15    19 1   
    41    16    19 1   
    42    16    20 1   
    43    16    21 2   
    44    17    21 1   
    45    19    44 1   
    46    20    45 1   
    47    20    46 1   
    48    20    58 1   
    49    22    23 1   
    50    24    25 1   
    51    24    47 1   
    52    25    48 1   
    53    25    49 1   
    54    25    50 1   
    55    26    27 1   
    56    26    51 1   
    57    28    52 1   
    58    28    53 1   
    59    28    54 1   
    60    29    55 1   
    61    29    56 1   
    62    29    57 1   
@<TRIPOS>SUBSTRUCTURE
     1 72C         1 TEMP              0 ****  ****    0 ROOT
