@<TRIPOS>MOLECULE
72D
   28    29     1     0     0
SMALL
bcc


@<TRIPOS>ATOM
      1 CAH          0.0000     0.0000     0.0000 ca         1 72D      -0.121500
      2 CAI          1.3810     0.0000     0.0000 ca         1 72D       0.018500
      3 CAJ          2.0750     0.0000     1.1960 ca         1 72D      -0.243500
      4 SAM          3.8370     0.0000     1.1880 sy         1 72D       0.932200
      5 OAN          4.2430    -0.5440     2.4360 o          1 72D      -0.498300
      6 OAO          4.2330    -0.5440    -0.0640 o          1 72D      -0.498300
      7 NAP          4.3270     1.5820     1.1860 nz         1 72D      -0.132500
      8 CAK          1.3920     0.0010     2.3980 ca         1 72D       0.018500
      9 CAL          0.0100     0.0010     2.4100 ca         1 72D      -0.121500
     10 CAG         -0.6940     0.0070     1.2080 cp         1 72D       0.104000
     11 CAA         -2.1770     0.0060     1.2140 cp         1 72D      -0.079000
     12 CAB         -2.8720     0.0070     2.4220 ca         1 72D      -0.077000
     13 CAC         -4.2510     0.0080     2.4220 ca         1 72D      -0.104500
     14 CAD         -4.9460     0.0080     1.2260 ca         1 72D      -0.054000
     15 CAE         -4.2610     0.0070     0.0250 ca         1 72D      -0.104500
     16 CAF         -2.8810     0.0120     0.0130 ca         1 72D      -0.077000
     17 HAH         -0.5420     0.0610    -0.9360 ha         1 72D       0.138000
     18 HAI          1.9220    -0.0060    -0.9390 ha         1 72D       0.123500
     19 HAP          3.9710     2.0400     0.3710 hn         1 72D       0.312467
     20 HAQ          3.9790     2.0400     2.0050 hn         1 72D       0.312467
     21 HAK          1.9400    -0.0030     3.3320 ha         1 72D       0.123500
     22 HAL         -0.5230    -0.0700     3.3500 ha         1 72D       0.138000
     23 HAB         -2.3300    -0.0490     3.3590 ha         1 72D       0.116000
     24 HAC         -4.7910     0.0090     3.3610 ha         1 72D       0.116000
     25 HAD         -6.0300     0.0090     1.2310 ha         1 72D       0.114000
     26 HAE         -4.8100     0.0030    -0.9100 ha         1 72D       0.116000
     27 HAF         -2.6430     0.0190    -1.0440 ha         1 72D       0.116000
     28 HAP3         5.3270     1.6220     1.2020 hn         1 72D       0.312467
@<TRIPOS>BOND
     1     1     2 ar  
     2     1    10 ar  
     3     1    17 1   
     4     2     3 ar  
     5     2    18 1   
     6     3     4 1   
     7     3     8 ar  
     8     4     5 2   
     9     4     6 2   
    10     4     7 1   
    11     7    19 1   
    12     7    20 1   
    13     7    28 1   
    14     8     9 ar  
    15     8    21 1   
    16     9    10 ar  
    17     9    22 1   
    18    10    11 1   
    19    11    12 ar  
    20    11    16 ar  
    21    12    13 ar  
    22    12    23 1   
    23    13    14 ar  
    24    13    24 1   
    25    14    15 ar  
    26    14    25 1   
    27    15    16 ar  
    28    15    26 1   
    29    16    27 1   
@<TRIPOS>SUBSTRUCTURE
     1 72D         1 TEMP              0 ****  ****    0 ROOT
