@<TRIPOS>MOLECULE
72E
   31    32     1     0     0
SMALL
bcc


@<TRIPOS>ATOM
      1 CAQ          0.0000     0.0000     0.0000 c3         1 72E       0.048200
      2 CAF          1.5070     0.0000     0.0000 ca         1 72E      -0.054300
      3 CAE          2.1980     0.0000     1.1950 ca         1 72E      -0.093000
      4 CAD          3.5810    -0.0000     1.1960 ca         1 72E      -0.058000
      5 CAC          4.2800     0.0000     0.0020 ca         1 72E      -0.100000
      6 CAB          3.5980     0.0010    -1.1980 ca         1 72E      -0.070000
      7 CAA          2.2050    -0.0050    -1.2070 cp         1 72E      -0.111000
      8 CAG          1.4670    -0.0100    -2.4940 cp         1 72E       0.108000
      9 CAH          1.7930     0.9090    -3.4890 ca         1 72E      -0.114500
     10 CAI          1.1020     0.8990    -4.6850 ca         1 72E       0.013500
     11 CAJ          0.0910    -0.0210    -4.8950 ca         1 72E      -0.239500
     12 SAM         -0.7850    -0.0270    -6.4240 sy         1 72E       0.932200
     13 OAN         -2.0430    -0.6340    -6.1640 o          1 72E      -0.497300
     14 OAO         -0.6490     1.2780    -6.9710 o          1 72E      -0.497300
     15 NAP          0.0230    -1.0480    -7.4480 nz         1 72E      -0.132500
     16 CAK         -0.2350    -0.9360    -3.9110 ca         1 72E       0.013500
     17 CAL          0.4520    -0.9380    -2.7140 ca         1 72E      -0.114500
     18 H1          -0.3610    -1.0130    -0.1320 hc         1 72E       0.015033
     19 H2          -0.3610     0.3920     0.9430 hc         1 72E       0.015033
     20 H3          -0.3610     0.6210    -0.8110 hc         1 72E       0.015033
     21 H4           1.6560    -0.0010     2.1330 ha         1 72E       0.119000
     22 H5           4.1200    -0.0010     2.1360 ha         1 72E       0.114000
     23 H6           5.3630     0.0030     0.0100 ha         1 72E       0.115000
     24 H7           4.1460    -0.0010    -2.1330 ha         1 72E       0.102000
     25 H8           2.5850     1.6290    -3.3250 ha         1 72E       0.140500
     26 H9           1.3540     1.6120    -5.4610 ha         1 72E       0.124000
     27 H10          0.9600    -0.7190    -7.5780 hn         1 72E       0.312800
     28 H11          0.0450    -1.9680    -7.0540 hn         1 72E       0.312800
     29 H12         -1.0260    -1.6560    -4.0820 ha         1 72E       0.124000
     30 H13          0.1960    -1.6550    -1.9430 ha         1 72E       0.140500
     31 HAP3        -0.4360    -1.0620    -8.3370 hn         1 72E       0.312800
@<TRIPOS>BOND
     1     1     2 1   
     2     1    18 1   
     3     1    19 1   
     4     1    20 1   
     5     2     3 ar  
     6     2     7 ar  
     7     3     4 ar  
     8     3    21 1   
     9     4     5 ar  
    10     4    22 1   
    11     5     6 ar  
    12     5    23 1   
    13     6     7 ar  
    14     6    24 1   
    15     7     8 1   
    16     8     9 ar  
    17     8    17 ar  
    18     9    10 ar  
    19     9    25 1   
    20    10    11 ar  
    21    10    26 1   
    22    11    12 1   
    23    11    16 ar  
    24    12    13 2   
    25    12    14 2   
    26    12    15 1   
    27    15    27 1   
    28    15    28 1   
    29    15    31 1   
    30    16    17 ar  
    31    16    29 1   
    32    17    30 1   
@<TRIPOS>SUBSTRUCTURE
     1 72E         1 TEMP              0 ****  ****    0 ROOT
