@<TRIPOS>MOLECULE
72H
   33    35     1     0     0
SMALL
bcc


@<TRIPOS>ATOM
      1 CAL          0.0000     0.0000     0.0000 ca         1 72H      -0.005000
      2 CAK          1.4050     0.0000     0.0000 ca         1 72H      -0.158300
      3 CAP          2.1340     0.0000     1.2010 ca         1 72H      -0.082000
      4 CAO          3.4940     0.0010     1.1630 ca         1 72H      -0.078000
      5 CAN          4.1750     0.0020    -0.0530 ca         1 72H      -0.065000
      6 CAM          3.5020     0.0010    -1.2360 ca         1 72H      -0.141300
      7 CAJ          2.0960     0.0000    -1.2390 ca         1 72H       0.392600
      8 NAI          1.4120     0.0020    -2.3880 nb         1 72H      -0.543000
      9 CAH          0.1030     0.0020    -2.4090 ca         1 72H       0.421200
     10 CAG         -0.6510     0.0000    -1.2250 cp         1 72H      -0.232300
     11 CAE         -2.1340    -0.0000    -1.2840 cp         1 72H       0.112000
     12 CAD         -2.7840    -0.0000    -2.5150 ca         1 72H      -0.125500
     13 CAC         -4.1640    -0.0010    -2.5640 ca         1 72H       0.022500
     14 CAB         -4.9000    -0.0020    -1.3920 ca         1 72H      -0.246500
     15 SAQ         -6.6600    -0.0030    -1.4620 sy         1 72H       0.933200
     16 OAR         -7.1110     0.5390    -0.2280 o          1 72H      -0.497300
     17 OAS         -7.0120     0.5420    -2.7260 o          1 72H      -0.497300
     18 NAT         -7.1490    -1.5860    -1.4830 nz         1 72H      -0.132500
     19 CAA         -4.2590    -0.0020    -0.1670 ca         1 72H       0.022500
     20 CAF         -2.8790    -0.0070    -0.1070 ca         1 72H      -0.125500
     21 HAL         -0.5580    -0.0010     0.9290 ha         1 72H       0.114000
     22 HAP          1.6160    -0.0010     2.1530 ha         1 72H       0.110000
     23 HAO          4.0550     0.0010     2.0900 ha         1 72H       0.113000
     24 HAN          5.2590     0.0020    -0.0580 ha         1 72H       0.114000
     25 HAM          4.0470     0.0020    -2.1720 ha         1 72H       0.128000
     26 HAH         -0.4100     0.0020    -3.3630 h4         1 72H      -0.017900
     27 HAD         -2.2090     0.0010    -3.4330 ha         1 72H       0.139000
     28 HAC         -4.6720    -0.0010    -3.5210 ha         1 72H       0.123500
     29 HAA         -4.8400    -0.0060     0.7480 ha         1 72H       0.123500
     30 HAF         -2.3780    -0.0070     0.8540 ha         1 72H       0.139000
     31 HAV         -6.8300    -2.0440    -0.6520 hn         1 72H       0.312467
     32 HAT         -6.7630    -2.0440    -2.2850 hn         1 72H       0.312467
     33 HAT3        -8.1480    -1.6260    -1.5240 hn         1 72H       0.312467
@<TRIPOS>BOND
     1     1     2 ar  
     2     1    10 ar  
     3     1    21 1   
     4     2     3 ar  
     5     2     7 ar  
     6     3     4 ar  
     7     3    22 1   
     8     4     5 ar  
     9     4    23 1   
    10     5     6 ar  
    11     5    24 1   
    12     6     7 ar  
    13     6    25 1   
    14     7     8 ar  
    15     8     9 ar  
    16     9    10 ar  
    17     9    26 1   
    18    10    11 1   
    19    11    12 ar  
    20    11    20 ar  
    21    12    13 ar  
    22    12    27 1   
    23    13    14 ar  
    24    13    28 1   
    25    14    15 1   
    26    14    19 ar  
    27    15    16 2   
    28    15    17 2   
    29    15    18 1   
    30    18    31 1   
    31    18    32 1   
    32    18    33 1   
    33    19    20 ar  
    34    19    29 1   
    35    20    30 1   
@<TRIPOS>SUBSTRUCTURE
     1 72H         1 TEMP              0 ****  ****    0 ROOT
