@<TRIPOS>MOLECULE
molecule
   33    35     1     0     0
SMALL
bcc


@<TRIPOS>ATOM
      1 CAL          0.0000     0.0000     0.0000 ca         1 72H      -0.029000
      2 CAK          1.4050     0.0000     0.0000 ca         1 72H      -0.163300
      3 CAP          2.1340     0.0000     1.2010 ca         1 72H      -0.109000
      4 CAO          3.4940     0.0010     1.1630 ca         1 72H      -0.111000
      5 CAN          4.1750     0.0020    -0.0530 ca         1 72H      -0.094000
      6 CAM          3.5020     0.0010    -1.2360 ca         1 72H      -0.166300
      7 CAJ          2.0960     0.0000    -1.2390 ca         1 72H       0.440600
      8 NAI          1.4120     0.0020    -2.3880 nb         1 72H      -0.660000
      9 CAH          0.1030     0.0020    -2.4090 ca         1 72H       0.451200
     10 CAG         -0.6510     0.0000    -1.2250 cp         1 72H      -0.231300
     11 CAE         -2.1340    -0.0000    -1.2840 cp         1 72H       0.097000
     12 CAD         -2.7840    -0.0000    -2.5150 ca         1 72H      -0.140000
     13 CAC         -4.1640    -0.0010    -2.5640 ca         1 72H      -0.019000
     14 CAB         -4.9000    -0.0020    -1.3920 ca         1 72H      -0.357500
     15 SAQ         -6.6600    -0.0030    -1.4620 sy         1 72H       1.224200
     16 OAR         -7.1110     0.5390    -0.2280 o          1 72H      -0.521300
     17 OAS         -7.0120     0.5420    -2.7260 o          1 72H      -0.521300
     18 NAT         -7.1490    -1.5860    -1.4830 nz         1 72H      -0.805500
     19 CAA         -4.2590    -0.0020    -0.1670 ca         1 72H      -0.019000
     20 CAF         -2.8790    -0.0070    -0.1070 ca         1 72H      -0.140000
     21 HAL         -0.5580    -0.0010     0.9290 ha         1 72H       0.142000
     22 HAP          1.6160    -0.0010     2.1530 ha         1 72H       0.139000
     23 HAO          4.0550     0.0010     2.0900 ha         1 72H       0.146000
     24 HAN          5.2590     0.0020    -0.0580 ha         1 72H       0.149000
     25 HAM          4.0470     0.0020    -2.1720 ha         1 72H       0.162000
     26 HAH         -0.4100     0.0020    -3.3630 h4         1 72H       0.024100
     27 HAD         -2.2090     0.0010    -3.4330 ha         1 72H       0.165000
     28 HAC         -4.6720    -0.0010    -3.5210 ha         1 72H       0.154500
     29 HAA         -4.8400    -0.0060     0.7480 ha         1 72H       0.154500
     30 HAF         -2.3780    -0.0070     0.8540 ha         1 72H       0.165000
     31 HAV         -6.8300    -2.0440    -0.6520 hn         1 72H       0.490800
     32 HAT         -6.7630    -2.0440    -2.2850 hn         1 72H       0.490800
     33 HAT3        -8.1480    -1.6260    -1.5240 hn         1 72H       0.490800
@<TRIPOS>BOND
     1     1     2 ar  
     2     1    10 ar  
     3     2     3 ar  
     4     2     7 ar  
     5     3     4 ar  
     6     4     5 ar  
     7     5     6 ar  
     8     6     7 ar  
     9     7     8 ar  
    10     8     9 ar  
    11     9    10 ar  
    12    10    11 1   
    13    11    12 ar  
    14    11    20 ar  
    15    12    13 ar  
    16    13    14 ar  
    17    14    15 1   
    18    14    19 ar  
    19    15    16 2   
    20    15    17 2   
    21    15    18 1   
    22    19    20 ar  
    23     1    21 1   
    24     3    22 1   
    25     4    23 1   
    26     5    24 1   
    27     6    25 1   
    28     9    26 1   
    29    12    27 1   
    30    13    28 1   
    31    18    31 1   
    32    18    32 1   
    33    19    29 1   
    34    20    30 1   
    35    33    18 1   
@<TRIPOS>SUBSTRUCTURE
     1 72H         1 TEMP              0 ****  ****    0 ROOT
