@<TRIPOS>MOLECULE
72K
   67    74     1     0     0
SMALL
bcc


@<TRIPOS>ATOM
      1 C18          0.0000     0.0000     0.0000 ca         1 72K      -0.086000
      2 C20          1.3930     0.0000     0.0000 ca         1 72K      -0.080000
      3 C27         -2.2650     0.8490     7.6160 ca         1 72K      -0.034000
      4 C14         -0.6980     0.0000     1.1690 ca         1 72K      -0.083000
      5 C28         -1.6270     0.8710     6.3850 ca         1 72K      -0.122000
      6 C3          -1.3640    -1.6940    12.5650 ca         1 72K      -0.025000
      7 C16          2.0960     0.0000     1.1650 ca         1 72K      -0.076000
      8 C24         -1.8960    -0.0600     8.5830 ca         1 72K      -0.136000
      9 C2          -1.0270    -1.3560    11.2860 ca         1 72K      -0.162000
     10 C13         -0.6910    -0.0060     3.6180 c2         1 72K      -0.028000
     11 C6          -0.5960    -3.6710    10.7620 ca         1 72K      -0.226000
     12 C19          1.4640     0.0000     4.7040 c2         1 72K      -0.054000
     13 C11         -0.0050    -0.0060     2.3910 ca         1 72K      -0.087000
     14 C23         -0.2270    -0.9690     7.0850 ca         1 72K      -0.159000
     15 C21         -0.6100    -0.0300     6.1050 ca         1 72K       0.081000
     16 C17          0.0610    -0.0120     4.7840 c2         1 72K      -0.132000
     17 C4          -1.3230    -3.0310    12.9720 ca         1 72K      -0.326000
     18 C12          1.4130     0.0010     2.3940 ca         1 72K      -0.015000
     19 C22         -0.8750    -0.9710     8.3330 ca         1 72K      -0.136000
     20 C1          -0.6420    -2.3380    10.3760 ca         1 72K       0.072000
     21 C5          -0.9410    -4.0270    12.0570 ca         1 72K       0.101000
     22 C25          0.7380    -2.0040     7.1180 c2         1 72K       0.005000
     23 C30          1.1490    -6.4410    11.6630 c3         1 72K      -0.124500
     24 C34         -0.9730    -7.7380    11.8900 c3         1 72K      -0.124500
     25 C31          1.6970    -7.5040    10.7090 DU         1 72K      -0.024500
     26 C33         -0.4270    -8.8000    10.9340 DU         1 72K      -0.024500
     27 C29         -0.3730    -6.3750    11.5360 c3         1 72K      -0.113000
     28 C32          1.0970    -8.8650    11.0630 c3         1 72K      -0.300000
     29 C36          1.6720    -2.3710     5.9940 c3         1 72K      -0.077000
     30 N15          2.0830    -0.0000     3.5510 n2         1 72K      -0.035000
     31 N26          0.6850    -2.5860     8.2820 n2         1 72K      -0.193000
     32 N10         -0.3010    -1.9800     9.0710 na         1 72K       0.298000
     33 N9          -1.9300    -2.4310    15.2610 nz         1 72K       0.825000
     34 N7          -0.8970    -5.3580    12.4500 nu         1 72K       0.102000
     35 O37         -1.7470    -4.5660    14.6760 o          1 72K      -0.288000
     36 O35          1.6070    -9.8580    10.1700 oh         1 72K      -0.314000
     37 H1          -0.5350    -0.0000    -0.9420 ha         1 72K       0.109000
     38 H2           1.9260    -0.0000    -0.9430 ha         1 72K       0.110000
     39 H3          -3.0580     1.5570     7.8210 ha         1 72K       0.110000
     40 H4          -1.7810     0.0000     1.1570 ha         1 72K       0.110000
     41 H5          -1.9290     1.5920     5.6350 ha         1 72K       0.123000
     42 H6          -1.6600    -0.9240    13.2670 ha         1 72K       0.078000
     43 H7           3.1790     0.0000     1.1460 ha         1 72K       0.122000
     44 H8          -2.4030    -0.0660     9.5400 ha         1 72K       0.107000
     45 H9          -1.0610    -0.3180    10.9770 ha         1 72K       0.143000
     46 H10         -1.7740    -0.0150     3.6530 ha         1 72K       0.117000
     47 H11         -0.2980    -4.4320    10.0510 ha         1 72K       0.161000
     48 H12          2.0470    -0.0050     5.6170 h4         1 72K       0.126000
     49 H13          1.5730    -5.4770    11.4100 hc         1 72K       0.078500
     50 H14          1.4140    -6.7010    12.6810 hc         1 72K       0.078500
     51 H15         -0.7050    -7.9960    12.9070 hc         1 72K       0.078500
     52 H16         -2.0520    -7.6910    11.7970 hc         1 72K       0.078500
     53 H17          1.4290    -7.2460     9.6910 ha         1 72K       0.059000
     54 H18          2.7750    -7.5510    10.8030 ha         1 72K       0.059000
     55 H19         -0.6910    -8.5390     9.9170 ha         1 72K       0.059000
     56 H20         -0.8510    -9.7640    11.1870 ha         1 72K       0.059000
     57 H21         -0.6370    -6.1210    10.5170 h1         1 72K       0.091000
     58 H22          0.5490    -8.0460    10.6140 DU         1 72K       0.232000
     59 H23          1.5520    -3.4300     6.1850 hc         1 72K       0.079000
     60 H24          1.2870    -2.0790     5.0250 hc         1 72K       0.079000
     61 H25          2.6850    -2.0310     6.1710 hc         1 72K       0.079000
     62 H26         -2.7310    -1.9030    14.9740 hn         1 72K       0.036667
     63 H27         -2.1110    -2.8550    16.1490 hn         1 72K       0.036667
     64 H28         -1.2550    -5.6270    13.3450 hn         1 72K       0.141000
     65 H29          2.0640   -10.5190    10.6640 ho         1 72K       0.225000
     66 H93         -1.1370    -1.8240    15.3250 hn         1 72K       0.036667
     67 C8          -1.6800    -3.3950    14.3530 c2         1 72K       0.098000
@<TRIPOS>BOND
     1     1     2 1   
     2     1     4 1   
     3     1    37 1   
     4     2     7 1   
     5     2    38 1   
     6     3     5 1   
     7     3     8 1   
     8     3    39 1   
     9     4    13 1   
    10     4    40 1   
    11     5    15 1   
    12     5    41 1   
    13     6     9 1   
    14     6    17 1   
    15     6    42 1   
    16     7    18 1   
    17     7    43 1   
    18     8    19 1   
    19     8    44 1   
    20     9    20 1   
    21     9    45 1   
    22    10    13 1   
    23    10    16 1   
    24    10    46 1   
    25    11    20 1   
    26    11    21 1   
    27    11    47 1   
    28    12    16 1   
    29    12    30 1   
    30    12    48 1   
    31    13    18 1   
    32    14    15 1   
    33    14    19 1   
    34    14    22 1   
    35    15    16 1   
    36    17    21 1   
    37    17    67 1   
    38    18    30 1   
    39    19    32 1   
    40    20    32 1   
    41    21    34 1   
    42    22    29 1   
    43    22    31 1   
    44    23    25 1   
    45    23    27 1   
    46    23    49 1   
    47    23    50 1   
    48    24    26 1   
    49    24    27 1   
    50    24    51 1   
    51    24    52 1   
    52    25    28 1   
    53    25    53 1   
    54    25    54 1   
    55    25    58 1   
    56    26    28 1   
    57    26    55 1   
    58    26    56 1   
    59    26    58 1   
    60    27    34 1   
    61    27    57 1   
    62    28    36 1   
    63    28    58 1   
    64    29    59 1   
    65    29    60 1   
    66    29    61 1   
    67    31    32 1   
    68    33    62 1   
    69    33    63 1   
    70    33    66 1   
    71    33    67 1   
    72    34    64 1   
    73    35    67 1   
    74    36    65 1   
@<TRIPOS>SUBSTRUCTURE
     1 72K         1 TEMP              0 ****  ****    0 ROOT
