@<TRIPOS>MOLECULE
molecule
   67    72     1     0     0
SMALL
bcc


@<TRIPOS>ATOM
      1 C18          0.0000     0.0000     0.0000 ca         1 72K      -0.117000
      2 C20          1.3930     0.0000     0.0000 ca         1 72K      -0.107000
      3 C27         -2.2650     0.8490     7.6160 ca         1 72K      -0.068000
      4 C14         -0.6980     0.0000     1.1690 ca         1 72K      -0.110000
      5 C28         -1.6270     0.8710     6.3850 ca         1 72K      -0.145000
      6 C3          -1.3640    -1.6940    12.5650 ca         1 72K      -0.059000
      7 C16          2.0960     0.0000     1.1650 ca         1 72K      -0.165300
      8 C24         -1.8960    -0.0600     8.5830 ca         1 72K      -0.166000
      9 C2          -1.0270    -1.3560    11.2860 ca         1 72K      -0.188000
     10 C13         -0.6910    -0.0060     3.6180 ca         1 72K      -0.052000
     11 C6          -0.5960    -3.6710    10.7620 ca         1 72K      -0.239000
     12 C19          1.4640     0.0000     4.7040 ca         1 72K       0.441200
     13 C11         -0.0050    -0.0060     2.3910 ca         1 72K      -0.159300
     14 C23         -0.2270    -0.9690     7.0850 ca         1 72K      -0.230900
     15 C21         -0.6100    -0.0300     6.1050 cp         1 72K       0.056000
     16 C17          0.0610    -0.0120     4.7840 cp         1 72K      -0.202300
     17 C4          -1.3230    -3.0310    12.9720 ca         1 72K      -0.330600
     18 C12          1.4130     0.0010     2.3940 ca         1 72K       0.424600
     19 C22         -0.8750    -0.9710     8.3330 ca         1 72K      -0.021200
     20 C1          -0.6420    -2.3380    10.3760 ca         1 72K       0.184800
     21 C5          -0.9410    -4.0270    12.0570 ca         1 72K       0.317600
     22 C25          0.7380    -2.0040     7.1180 cc         1 72K       0.416900
     23 C30          1.1490    -6.4410    11.6630 c3         1 72K      -0.105400
     24 C34         -0.9730    -7.7380    11.8900 c3         1 72K      -0.105400
     25 C31          1.6970    -7.5040    10.7090 c3         1 72K      -0.041400
     26 C33         -0.4270    -8.8000    10.9340 c3         1 72K      -0.041400
     27 C29         -0.3730    -6.3750    11.5360 c3         1 72K       0.198500
     28 C32          1.0970    -8.8650    11.0630 c3         1 72K      -0.175900
     29 C36          1.6720    -2.3710     5.9940 c3         1 72K      -0.112400
     30 N15          2.0830    -0.0000     3.5510 nb         1 72K      -0.677000
     31 N26          0.6850    -2.5860     8.2820 nd         1 72K      -0.520100
     32 N10         -0.3010    -1.9800     9.0710 na         1 72K       0.124800
     33 N9          -1.9300    -2.4310    15.2610 nz         1 72K      -0.671400
     34 N7          -0.8970    -5.3580    12.4500 nu         1 72K      -0.765600
     35 O37         -1.7470    -4.5660    14.6760 o          1 72K      -0.496100
     36 O35          1.6070    -9.8580    10.1700 oh         1 72K      -0.604800
     37 H1          -0.5350    -0.0000    -0.9420 ha         1 72K       0.140000
     38 H2           1.9260    -0.0000    -0.9430 ha         1 72K       0.142000
     39 H3          -3.0580     1.5570     7.8210 ha         1 72K       0.145000
     40 H4          -1.7810     0.0000     1.1570 ha         1 72K       0.137000
     41 H5          -1.9290     1.5920     5.6350 ha         1 72K       0.152000
     42 H6          -1.6600    -0.9240    13.2670 ha         1 72K       0.109000
     43 H7           3.1790     0.0000     1.1460 ha         1 72K       0.155000
     44 H8          -2.4030    -0.0660     9.5400 ha         1 72K       0.128000
     45 H9          -1.0610    -0.3180    10.9770 ha         1 72K       0.168000
     46 H10         -1.7740    -0.0150     3.6530 ha         1 72K       0.146000
     47 H11         -0.2980    -4.4320    10.0510 ha         1 72K       0.183000
     48 H12          2.0470    -0.0050     5.6170 h4         1 72K       0.029100
     49 H13          1.5730    -5.4770    11.4100 hc         1 72K       0.069450
     50 H14          1.4140    -6.7010    12.6810 hc         1 72K       0.069450
     51 H15         -0.7050    -7.9960    12.9070 hc         1 72K       0.069450
     52 H16         -2.0520    -7.6910    11.7970 hc         1 72K       0.069450
     53 H17          1.4290    -7.2460     9.6910 hc         1 72K       0.056450
     54 H18          2.7750    -7.5510    10.8030 hc         1 72K       0.056450
     55 H19         -0.6910    -8.5390     9.9170 hc         1 72K       0.056450
     56 H20         -0.8510    -9.7640    11.1870 hc         1 72K       0.056450
     57 H21         -0.6370    -6.1210    10.5170 h1         1 72K       0.068700
     58 H22          0.5490    -8.0460    10.6140 h1         1 72K       0.232700
     59 H23          1.5520    -3.4300     6.1850 hc         1 72K       0.075367
     60 H24          1.2870    -2.0790     5.0250 hc         1 72K       0.075367
     61 H25          2.6850    -2.0310     6.1710 hc         1 72K       0.075367
     62 H26         -2.7310    -1.9030    14.9740 hn         1 72K       0.474133
     63 H27         -2.1110    -2.8550    16.1490 hn         1 72K       0.474133
     64 H28         -1.2550    -5.6270    13.3450 hn         1 72K       0.479800
     65 H29          2.0640   -10.5190    10.6640 ho         1 72K       0.431000
     66 H93         -1.1370    -1.8240    15.3250 hn         1 72K       0.474133
     67 C8          -1.6800    -3.3950    14.3530 c          1 72K       0.513700
@<TRIPOS>BOND
     1    31    22 2
     2    31    32 1
     3     9     6 ar
     4     9    20 ar
     5    29    22 1
     6    33    67 1
     7     6    17 ar
     8    22    14 1
     9    32    20 1
    10    32    19 1
    11    30    12 ar
    12    30    18 ar
    13    20    11 ar
    14    12    16 ar
    15    17    67 1
    16    17    21 ar
    17    19    14 ar
    18    19     8 ar
    19    14    15 ar
    20    67    35 2
    21    11    21 ar
    22    21    34 1
    23     7    18 ar
    24     7     2 ar
    25    18    13 ar
    26     8     3 ar
    27    15    16 1
    28    15     5 ar
    29    16    10 ar
    30    34    27 1
    31     3     5 ar
    32    27    24 1
    33    27    23 1
    34    24    26 1
    35     2     1 ar
    36    13    10 ar
    37    13     4 ar
    38    26    28 1
    39    23    25 1
    40     1     4 ar
    41    25    28 1
    42    28    36 1
    43     1    37 1
    44     2    38 1
    45     3    39 1
    46     4    40 1
    47     5    41 1
    48     6    42 1
    49     7    43 1
    50     8    44 1
    51     9    45 1
    52    10    46 1
    53    11    47 1
    54    12    48 1
    55    23    49 1
    56    23    50 1
    57    24    51 1
    58    24    52 1
    59    25    53 1
    60    25    54 1
    61    26    55 1
    62    26    56 1
    63    27    57 1
    64    28    58 1
    65    29    59 1
    66    29    60 1
    67    29    61 1
    68    33    62 1
    69    33    63 1
    70    34    64 1
    71    36    65 1
    72    66    33 1
@<TRIPOS>SUBSTRUCTURE
     1 72K         1 TEMP              0 ****  ****    0 ROOT
