@<TRIPOS>MOLECULE
72L
   51    55     1     0     0
SMALL
bcc


@<TRIPOS>ATOM
      1 C5           0.0000     0.0000     0.0000 cc         1 72L       0.283700
      2 C6           5.4980     0.1200     2.8440 ca         1 72L       0.115600
      3 C11          5.4240     0.8920     1.6910 ca         1 72L      -0.148500
      4 C7           6.6830    -0.5300     3.1660 ca         1 72L      -0.148500
      5 C8           7.7810    -0.4110     2.3360 ca         1 72L       0.036500
      6 C9           7.7020     0.3540     1.1870 ca         1 72L      -0.266500
      7 C10          6.5260     1.0060     0.8670 ca         1 72L       0.036500
      8 N1           2.0660     0.0010     3.9610 nb         1 72L      -0.652000
      9 N2           2.9730     0.0010     1.8250 nb         1 72L      -0.648000
     10 N3           1.3040     0.0000     0.0000 nd         1 72L      -0.609700
     11 CB           0.8200     0.0000     3.4900 cp         1 72L       0.578800
     12 C2           3.1080     0.0020     3.1410 ca         1 72L       0.671900
     13 C            1.7600     0.0000     1.2670 ca         1 72L       0.561300
     14 CA           0.6290     0.0000     2.1070 ca         1 72L      -0.545800
     15 N           -0.4670     0.0040     1.2700 na         1 72L       0.304700
     16 N5           4.3840     0.0020     3.6810 nu         1 72L      -0.276300
     17 S1           9.1050     0.5030     0.1330 sy         1 72L       0.930200
     18 OH          10.2440     0.2370     0.9390 o          1 72L      -0.503800
     19 N6           9.0200    -0.7270    -0.9740 nz         1 72L      -0.132500
     20 O2           8.9340     1.7110    -0.5960 o          1 72L      -0.503800
     21 CG          -0.3390    -0.0010     4.4140 cp         1 72L      -0.183500
     22 CD1         -1.5040     0.6860     4.0740 ca         1 72L      -0.107000
     23 CE1         -2.5860     0.6820     4.9320 ca         1 72L      -0.090000
     24 C15         -2.5220    -0.0010     6.1300 ca         1 72L      -0.076000
     25 CE2         -1.3620    -0.6920     6.4810 cp         1 72L      -0.016000
     26 CD2         -0.2680    -0.6910     5.6210 ca         1 72L      -0.056000
     27 C18         -1.2940    -1.4270     7.7690 cp         1 72L      -0.049000
     28 C19         -0.1340    -2.1110     8.1230 ca         1 72L      -0.094000
     29 C20         -0.0770    -2.7930     9.3220 ca         1 72L      -0.094500
     30 C21         -1.1680    -2.7960    10.1710 ca         1 72L      -0.087000
     31 C22         -2.3220    -2.1180     9.8250 ca         1 72L      -0.094500
     32 C23         -2.3890    -1.4270     8.6310 ca         1 72L      -0.094000
     33 H1          -0.6200    -0.0030    -0.8880 h5         1 72L       0.037800
     34 H3           4.5020     1.4020     1.4380 ha         1 72L       0.147500
     35 H4           6.7460    -1.1310     4.0650 ha         1 72L       0.147500
     36 H5           8.7040    -0.9190     2.5850 ha         1 72L       0.121500
     37 H6           6.4680     1.6070    -0.0330 ha         1 72L       0.121500
     38 H8          -1.4280     0.0050     1.5500 hn         1 72L       0.147700
     39 H9           4.5080    -0.0620     4.6720 hn         1 72L       0.308800
     40 H10          9.0330    -1.6060    -0.4970 hn         1 72L       0.311467
     41 H11          8.1730    -0.6440    -1.5000 hn         1 72L       0.311467
     42 H12         -1.5600     1.2240     3.1350 ha         1 72L       0.096000
     43 H13         -3.4890     1.2170     4.6640 ha         1 72L       0.111000
     44 H14         -3.3740    -0.0010     6.7990 ha         1 72L       0.120000
     45 H15          0.6350    -1.2260     5.8890 ha         1 72L       0.126000
     46 H16          0.7210    -2.1100     7.4580 ha         1 72L       0.109000
     47 H17          0.8250    -3.3260     9.5980 ha         1 72L       0.106000
     48 H18         -1.1190    -3.3340    11.1100 ha         1 72L       0.107000
     49 H19         -3.1730    -2.1210    10.4960 ha         1 72L       0.106000
     50 H20         -3.2940    -0.8960     8.3610 ha         1 72L       0.109000
     51 H63          9.8080    -0.6770    -1.5890 hn         1 72L       0.311467
@<TRIPOS>BOND
     1     1    10 2   
     2     1    15 1   
     3     1    33 1   
     4     2     3 ar  
     5     2     4 ar  
     6     2    16 1   
     7     3     7 ar  
     8     3    34 1   
     9     4     5 ar  
    10     4    35 1   
    11     5     6 ar  
    12     5    36 1   
    13     6     7 ar  
    14     6    17 1   
    15     7    37 1   
    16     8    11 ar  
    17     8    12 ar  
    18     9    12 ar  
    19     9    13 ar  
    20    10    13 1   
    21    11    14 ar  
    22    11    21 1   
    23    12    16 1   
    24    13    14 ar  
    25    14    15 1   
    26    15    38 1   
    27    16    39 1   
    28    17    18 2   
    29    17    19 1   
    30    17    20 2   
    31    19    40 1   
    32    19    41 1   
    33    19    51 1   
    34    21    22 ar  
    35    21    26 ar  
    36    22    23 ar  
    37    22    42 1   
    38    23    24 ar  
    39    23    43 1   
    40    24    25 ar  
    41    24    44 1   
    42    25    26 ar  
    43    25    27 1   
    44    26    45 1   
    45    27    28 ar  
    46    27    32 ar  
    47    28    29 ar  
    48    28    46 1   
    49    29    30 ar  
    50    29    47 1   
    51    30    31 ar  
    52    30    48 1   
    53    31    32 ar  
    54    31    49 1   
    55    32    50 1   
@<TRIPOS>SUBSTRUCTURE
     1 72L         1 TEMP              0 ****  ****    0 ROOT
