@<TRIPOS>MOLECULE
molecule
   51    55     1     0     0
SMALL
bcc


@<TRIPOS>ATOM
      1 C5           0.0000     0.0000     0.0000 cc         1 72L       0.478700
      2 C6           5.4980     0.1200     2.8440 ca         1 72L       0.276600
      3 C11          5.4240     0.8920     1.6910 ca         1 72L      -0.159000
      4 C7           6.6830    -0.5300     3.1660 ca         1 72L      -0.159000
      5 C8           7.7810    -0.4110     2.3360 ca         1 72L      -0.009000
      6 C9           7.7020     0.3540     1.1870 ca         1 72L      -0.375500
      7 C10          6.5260     1.0060     0.8670 ca         1 72L      -0.009000
      8 N1           2.0660     0.0010     3.9610 nb         1 72L      -0.763000
      9 N2           2.9730     0.0010     1.8250 nb         1 72L      -0.778000
     10 N3           1.3040     0.0000     0.0000 nd         1 72L      -0.692700
     11 CB           0.8200     0.0000     3.4900 cp         1 72L       0.601800
     12 C2           3.1080     0.0020     3.1410 ca         1 72L       0.918900
     13 C            1.7600     0.0000     1.2670 ca         1 72L       0.647300
     14 CA           0.6290     0.0000     2.1070 ca         1 72L      -0.369800
     15 N           -0.4670     0.0040     1.2700 na         1 72L      -0.238300
     16 N5           4.3840     0.0020     3.6810 nu         1 72L      -0.746300
     17 S1           9.1050     0.5030     0.1330 sy         1 72L       1.223200
     18 OH          10.2440     0.2370     0.9390 o          1 72L      -0.528800
     19 N6           9.0200    -0.7270    -0.9740 nz         1 72L      -0.804500
     20 O2           8.9340     1.7110    -0.5960 o          1 72L      -0.528800
     21 CG          -0.3390    -0.0010     4.4140 cp         1 72L      -0.172500
     22 CD1         -1.5040     0.6860     4.0740 ca         1 72L      -0.124000
     23 CE1         -2.5860     0.6820     4.9320 ca         1 72L      -0.123000
     24 C15         -2.5220    -0.0010     6.1300 ca         1 72L      -0.097000
     25 CE2         -1.3620    -0.6920     6.4810 cp         1 72L      -0.024000
     26 CD2         -0.2680    -0.6910     5.6210 ca         1 72L      -0.074000
     27 C18         -1.2940    -1.4270     7.7690 cp         1 72L      -0.050000
     28 C19         -0.1340    -2.1110     8.1230 ca         1 72L      -0.115000
     29 C20         -0.0770    -2.7930     9.3220 ca         1 72L      -0.124000
     30 C21         -1.1680    -2.7960    10.1710 ca         1 72L      -0.115000
     31 C22         -2.3220    -2.1180     9.8250 ca         1 72L      -0.124000
     32 C23         -2.3890    -1.4270     8.6310 ca         1 72L      -0.115000
     33 H1          -0.6200    -0.0030    -0.8880 h5         1 72L       0.090800
     34 H3           4.5020     1.4020     1.4380 ha         1 72L       0.178500
     35 H4           6.7460    -1.1310     4.0650 ha         1 72L       0.178500
     36 H5           8.7040    -0.9190     2.5850 ha         1 72L       0.154000
     37 H6           6.4680     1.6070    -0.0330 ha         1 72L       0.154000
     38 H8          -1.4280     0.0050     1.5500 hn         1 72L       0.322700
     39 H9           4.5080    -0.0620     4.6720 hn         1 72L       0.485800
     40 H10          9.0330    -1.6060    -0.4970 hn         1 72L       0.489467
     41 H11          8.1730    -0.6440    -1.5000 hn         1 72L       0.489467
     42 H12         -1.5600     1.2240     3.1350 ha         1 72L       0.124000
     43 H13         -3.4890     1.2170     4.6640 ha         1 72L       0.142000
     44 H14         -3.3740    -0.0010     6.7990 ha         1 72L       0.146000
     45 H15          0.6350    -1.2260     5.8890 ha         1 72L       0.152000
     46 H16          0.7210    -2.1100     7.4580 ha         1 72L       0.131500
     47 H17          0.8250    -3.3260     9.5980 ha         1 72L       0.135500
     48 H18         -1.1190    -3.3340    11.1100 ha         1 72L       0.137000
     49 H19         -3.1730    -2.1210    10.4960 ha         1 72L       0.135500
     50 H20         -3.2940    -0.8960     8.3610 ha         1 72L       0.131500
     51 H63          9.8080    -0.6770    -1.5890 hn         1 72L       0.489467
@<TRIPOS>BOND
     1    23    24 ar  
     2    23    22 ar  
     3    24    25 ar  
     4    22    21 ar  
     5    25    27 1   
     6    25    26 ar  
     7    28    27 ar  
     8    28    29 ar  
     9    27    32 ar  
    10    32    31 ar  
    11    29    30 ar  
    12    21    26 ar  
    13    21    11 1   
    14    31    30 ar  
    15    15    14 1   
    16    15     1 1   
    17    18    17 2   
    18    11    14 ar  
    19    11     8 ar  
    20    14    13 ar  
    21     1    10 2   
    22     8    12 ar  
    23    13    10 1   
    24    13     9 ar  
    25    17    20 2   
    26    17    19 1   
    27    17     6 1   
    28     5     4 ar  
    29     5     6 ar  
    30     4     2 ar  
    31    12     9 ar  
    32    12    16 1   
    33     6     7 ar  
    34     2    16 1   
    35     2     3 ar  
    36     7     3 ar  
    37     1    33 1   
    38     3    34 1   
    39     4    35 1   
    40     5    36 1   
    41     7    37 1   
    42    15    38 1   
    43    16    39 1   
    44    19    40 1   
    45    19    41 1   
    46    22    42 1   
    47    23    43 1   
    48    24    44 1   
    49    26    45 1   
    50    28    46 1   
    51    29    47 1   
    52    30    48 1   
    53    31    49 1   
    54    32    50 1   
    55    51    19 1   
@<TRIPOS>SUBSTRUCTURE
     1 72L         1 TEMP              0 ****  ****    0 ROOT
