@<TRIPOS>MOLECULE
molecule
   67    71     1     0     0
SMALL
bcc


@<TRIPOS>ATOM
      1 N3           0.0000     0.0000     0.0000 nb         1 72M      -0.795000
      2 C4           1.2510     0.0010     2.4090 ca         1 72M       0.790200
      3 C5           1.3290     0.0000     0.0000 ca         1 72M       0.476800
      4 C6           2.0120     0.0000     1.2270 ca         1 72M      -0.212200
      5 C8           3.5080    -0.0020    -0.3430 cc         1 72M       0.425700
      6 C10          2.0730    -0.0030    -2.4200 c3         1 72M       0.252800
      7 C21         11.6190    -0.0820    -3.2030 ca         1 72M       0.162100
      8 C22         12.0510     0.5880    -0.9350 ca         1 72M      -0.117000
      9 C24         12.5180     0.2510    -2.1930 ca         1 72M       0.048100
     10 C1          -0.6710     0.0010     1.1320 ca         1 72M       0.744900
     11 N2          -0.0740     0.0030     2.3100 nb         1 72M      -0.835000
     12 N7           3.3380    -0.0000     0.9470 nd         1 72M      -0.588100
     13 N9           2.2980    -0.0010    -0.9720 na         1 72M      -0.259000
     14 C11          2.9870     1.6390    -3.9710 c3         1 72M       0.100100
     15 C12          1.8690     1.4400    -2.9190 c3         1 72M       0.084100
     16 O13          3.2280    -0.5300    -3.0960 os         1 72M      -0.417600
     17 C14          3.3430     0.1790    -4.3490 c3         1 72M       0.169300
     18 C16          7.0410    -0.7460    -4.8060 c3         1 72M       0.146200
     19 N17          7.9860    -0.4070    -3.7400 ns         1 72M      -0.589900
     20 C18          9.3110    -0.4150    -3.9850 c          1 72M       0.674700
     21 C19         10.2450    -0.0720    -2.9380 ca         1 72M      -0.160600
     22 O20          9.7230    -0.7050    -5.0910 o          1 72M      -0.581100
     23 C23         10.6910     0.5970    -0.6720 ca         1 72M      -0.087300
     24 C25          9.7890     0.2710    -1.6620 ca         1 72M      -0.092000
     25 O28         13.8550     0.2440    -2.4430 oh         1 72M      -0.517100
     26 O29          2.4970     2.3540    -5.1080 oh         1 72M      -0.570800
     27 O30          0.5820     1.5830    -3.5240 oh         1 72M      -0.566800
     28 N31          1.8690     0.0020     3.6480 nv         1 72M      -0.982500
     29 C32          4.7510     0.0950    -4.8780 c2         1 72M      -0.170200
     30 C33          9.9630     2.4540     0.7690 ca         1 72M      -0.087300
     31 C34          8.7270     2.9770     0.4350 ca         1 72M      -0.119000
     32 C35          9.5380     5.1840     0.8920 ca         1 72M      -0.081300
     33 C36         10.7700     4.6600     1.2370 ca         1 72M      -0.124000
     34 C37          8.5160     4.3420     0.4960 ca         1 72M      -0.124000
     35 C38         10.9840     3.2950     1.1700 ca         1 72M      -0.119000
     36 C39          9.3070     6.6710     0.9580 c3         1 72M      -0.048800
     37 H1           4.4680    -0.0040    -0.8440 h5         1 72M       0.081800
     38 H2           1.2030    -0.6010    -2.6610 h2         1 72M       0.114700
     39 H3           5.3510    -1.2300    -3.3970 ha         1 72M       0.145000
     40 H4          12.7530     0.8460    -0.1510 ha         1 72M       0.143000
     41 H5          10.9330     0.6830     1.4410 hc         1 72M       0.058200
     42 H6           9.2650     0.4470     0.9020 hc         1 72M       0.058200
     43 H7          -1.7540     0.0020     1.0960 h5         1 72M       0.063100
     44 H8           3.8420     2.1400    -3.5320 h1         1 72M       0.055700
     45 H9           1.9910     2.1420    -2.1030 h1         1 72M       0.059700
     46 H10          2.6340    -0.2090    -5.0700 h1         1 72M       0.093700
     47 H11          7.1590    -0.0510    -5.6280 h1         1 72M       0.061200
     48 H12          7.2370    -1.7530    -5.1540 h1         1 72M       0.061200
     49 H13          7.6490    -0.2040    -2.8190 hn         1 72M       0.311500
     50 H14          8.7260     0.2800    -1.4510 ha         1 72M       0.130000
     51 H15         12.6040    -1.1850    -4.3850 ho         1 72M       0.433000
     52 H16         14.1660     1.1320    -2.5150 ho         1 72M       0.427000
     53 H17          2.8980     3.2070    -5.1400 ho         1 72M       0.405000
     54 H18          0.1660     2.3620    -3.1960 ho         1 72M       0.414000
     55 H19          1.3170    -0.0020     4.4820 hn         1 72M       0.450800
     56 H20          2.8680     0.0080     3.7090 hn         1 72M       0.450800
     57 H21          5.0340     0.6620    -5.7570 ha         1 72M       0.147000
     58 H22          7.9250     2.3180     0.1250 ha         1 72M       0.127000
     59 H23         11.5710     5.3190     1.5500 ha         1 72M       0.131000
     60 H24          7.5490     4.7520     0.2300 ha         1 72M       0.131000
     61 H25         11.9490     2.8840     1.4400 ha         1 72M       0.127000
     62 H26          8.5360     6.8850     1.6880 hc         1 72M       0.043700
     63 H27         10.2260     7.1670     1.2470 hc         1 72M       0.043700
     64 H28          8.9940     7.0310    -0.0150 hc         1 72M       0.043700
     65 C15          5.6330    -0.6630    -4.2760 c2         1 72M      -0.178200
     66 O27         12.0730    -0.4080    -4.4400 oh         1 72M      -0.478100
     67 C26         10.1940     0.9670     0.7020 c3         1 72M       0.013200
@<TRIPOS>BOND
     1    28     2 1
     2     2    11 ar
     3     2     4 ar
     4    11    10 ar
     5    12     4 1
     6    12     5 2
     7     4     3 ar
     8    10     1 ar
     9    36    32 1
    10     5    13 1
    11     3     1 ar
    12     3    13 1
    13    33    32 ar
    14    33    35 ar
    15    32    34 ar
    16    13     6 1
    17    22    20 2
    18    18    19 1
    19    18    65 1
    20    20    19 1
    21    20    21 1
    22    35    30 ar
    23    34    31 ar
    24    65    29 2
    25    66     7 1
    26    21     7 ar
    27    21    24 ar
    28    16     6 1
    29    16    17 1
    30     6    15 1
    31     7     9 ar
    32    29    17 1
    33    30    31 ar
    34    30    67 1
    35    24    23 ar
    36     9    25 1
    37     9     8 ar
    38    17    14 1
    39    23     8 ar
    40    23    67 1
    41    15    27 1
    42    15    14 1
    43    14    26 1
    44     5    37 1
    45     6    38 1
    46    65    39 1
    47     8    40 1
    48    67    41 1
    49    67    42 1
    50    10    43 1
    51    14    44 1
    52    15    45 1
    53    17    46 1
    54    18    47 1
    55    18    48 1
    56    19    49 1
    57    24    50 1
    58    66    51 1
    59    25    52 1
    60    26    53 1
    61    27    54 1
    62    28    55 1
    63    28    56 1
    64    29    57 1
    65    31    58 1
    66    33    59 1
    67    34    60 1
    68    35    61 1
    69    36    62 1
    70    36    63 1
    71    36    64 1
@<TRIPOS>SUBSTRUCTURE
     1 72M         1 TEMP              0 ****  ****    0 ROOT
