@<TRIPOS>MOLECULE
72M
   67    73     1     0     0
SMALL
bcc


@<TRIPOS>ATOM
      1 N3           0.0000     0.0000     0.0000 n2         1 72M      -0.155000
      2 C4           1.2510     0.0010     2.4090 c2         1 72M       0.071000
      3 C5           1.3290     0.0000     0.0000 c2         1 72M      -0.121000
      4 C6           2.0120     0.0000     1.2270 c2         1 72M      -0.249000
      5 C8           3.5080    -0.0020    -0.3430 c2         1 72M      -0.203000
      6 C10          2.0730    -0.0030    -2.4200 c3         1 72M       0.053000
      7 C21         11.6190    -0.0820    -3.2030 ca         1 72M       0.136000
      8 C22         12.0510     0.5880    -0.9350 ca         1 72M      -0.095000
      9 C24         12.5180     0.2510    -2.1930 ca         1 72M       0.008000
     10 C1          -0.6710     0.0010     1.1320 c2         1 72M       0.029000
     11 N2          -0.0740     0.0030     2.3100 n2         1 72M      -0.213000
     12 N7           3.3380    -0.0000     0.9470 n2         1 72M      -0.070000
     13 N9           2.2980    -0.0010    -0.9720 na         1 72M       0.280000
     14 C11          2.9870     1.6390    -3.9710 c3         1 72M       0.034000
     15 C12          1.8690     1.4400    -2.9190 c3         1 72M       0.007000
     16 O13          3.2280    -0.5300    -3.0960 os         1 72M      -0.250000
     17 C14          3.3430     0.1790    -4.3490 DU         1 72M       0.043000
     18 C16          7.0410    -0.7460    -4.8060 DU         1 72M      -0.084000
     19 N17          7.9860    -0.4070    -3.7400 ns         1 72M      -0.066000
     20 C18          9.3110    -0.4150    -3.9850 c2         1 72M       0.282000
     21 C19         10.2450    -0.0720    -2.9380 ca         1 72M      -0.161000
     22 O20          9.7230    -0.7050    -5.0910 o          1 72M      -0.378000
     23 C23         10.6910     0.5970    -0.6720 ca         1 72M      -0.088000
     24 C25          9.7890     0.2710    -1.6620 ca         1 72M      -0.071000
     25 O28         13.8550     0.2440    -2.4430 oh         1 72M      -0.249000
     26 O29          2.4970     2.3540    -5.1080 oh         1 72M      -0.275000
     27 O30          0.5820     1.5830    -3.5240 oh         1 72M      -0.273000
     28 N31          1.8690     0.0020     3.6480 nv         1 72M       0.115000
     29 C32          4.7510     0.0950    -4.8780 c2         1 72M      -0.217000
     30 C33          9.9630     2.4540     0.7690 ca         1 72M      -0.090000
     31 C34          8.7270     2.9770     0.4350 ca         1 72M      -0.091500
     32 C35          9.5380     5.1840     0.8920 ca         1 72M      -0.082000
     33 C36         10.7700     4.6600     1.2370 ca         1 72M      -0.098500
     34 C37          8.5160     4.3420     0.4960 ca         1 72M      -0.098500
     35 C38         10.9840     3.2950     1.1700 ca         1 72M      -0.091500
     36 C39          9.3070     6.6710     0.9580 c3         1 72M      -0.061000
     37 H1           4.4680    -0.0020    -0.8440 h5         1 72M       0.168000
     38 H2           1.2030    -0.6010    -2.6610 h2         1 72M       0.111000
     39 H3           6.3920     0.0940    -4.1190 DU         1 72M       0.177000
     40 H4          12.7530     0.8460    -0.1510 ha         1 72M       0.116000
     41 H5          10.9340     0.6830     1.4410 hc         1 72M       0.063000
     42 H6           9.2650     0.4470     0.9020 hc         1 72M       0.063000
     43 H7          -1.7540     0.0020     1.0960 h5         1 72M       0.133000
     44 H8           3.8420     2.1400    -3.5320 h1         1 72M       0.062000
     45 H9           1.9910     2.1420    -2.1030 h1         1 72M       0.060000
     46 H10          2.6340    -0.2090    -5.0700 ha         1 72M       0.098000
     47 H11          7.1590    -0.0510    -5.6280 ha         1 72M       0.094500
     48 H12          7.2370    -1.7530    -5.1540 ha         1 72M       0.094500
     49 H13          7.6490    -0.1970    -2.8210 hn         1 72M       0.106000
     50 H14          8.7260     0.2800    -1.4510 ha         1 72M       0.107000
     51 H15         12.5440     0.3230    -4.8050 ho         1 72M       0.210000
     52 H16         14.2460    -0.5150    -2.0430 ho         1 72M       0.208000
     53 H17          2.9400     3.1840    -5.1730 ho         1 72M       0.189000
     54 H18          0.1660     2.3620    -3.1960 ho         1 72M       0.198000
     55 H19          2.8250    -0.2810     3.7300 hn         1 72M       0.071500
     56 H20          1.3440     0.2340     4.4680 hn         1 72M       0.071500
     57 H21          3.9920    -0.6620    -5.0350 DU         1 72M       0.184000
     58 H22          7.9250     2.3180     0.1250 ha         1 72M       0.103500
     59 H23         11.5710     5.3190     1.5500 ha         1 72M       0.105500
     60 H24          7.5490     4.7520     0.2300 ha         1 72M       0.105500
     61 H25         11.9490     2.8840     1.4400 ha         1 72M       0.103500
     62 H26         10.1790     7.1530     1.3830 hc         1 72M       0.047000
     63 H27          8.4430     6.8750     1.5780 hc         1 72M       0.047000
     64 H28          9.1340     7.0540    -0.0410 hc         1 72M       0.047000
     65 C15          5.6330    -0.6630    -4.2760 c2         1 72M      -0.165000
     66 O27         12.0730    -0.4080    -4.4400 oh         1 72M      -0.209000
     67 C26         10.1940     0.9670     0.7020 c3         1 72M       0.000000
@<TRIPOS>BOND
     1     1     3 1   
     2     1    10 1   
     3     2     4 1   
     4     2    11 1   
     5     2    28 1   
     6     3     4 1   
     7     3    13 1   
     8     4    12 1   
     9     5    12 1   
    10     5    13 1   
    11     5    37 1   
    12     6    13 1   
    13     6    15 1   
    14     6    16 1   
    15     6    38 1   
    16     7     9 1   
    17     7    21 1   
    18     7    66 1   
    19     8     9 1   
    20     8    23 1   
    21     8    40 1   
    22     9    25 1   
    23    10    11 1   
    24    10    43 1   
    25    14    15 1   
    26    14    17 1   
    27    14    26 1   
    28    14    44 1   
    29    15    27 1   
    30    15    45 1   
    31    16    17 1   
    32    17    29 1   
    33    17    46 1   
    34    17    57 1   
    35    18    19 1   
    36    18    39 1   
    37    18    47 1   
    38    18    48 1   
    39    18    65 1   
    40    19    20 1   
    41    19    49 1   
    42    20    21 1   
    43    20    22 1   
    44    21    24 1   
    45    23    24 1   
    46    23    67 1   
    47    24    50 1   
    48    25    52 1   
    49    26    53 1   
    50    27    54 1   
    51    28    55 1   
    52    28    56 1   
    53    29    57 1   
    54    29    65 1   
    55    30    31 1   
    56    30    35 1   
    57    30    67 1   
    58    31    34 1   
    59    31    58 1   
    60    32    33 1   
    61    32    34 1   
    62    32    36 1   
    63    33    35 1   
    64    33    59 1   
    65    34    60 1   
    66    35    61 1   
    67    36    62 1   
    68    36    63 1   
    69    36    64 1   
    70    39    65 1   
    71    41    67 1   
    72    42    67 1   
    73    51    66 1   
@<TRIPOS>SUBSTRUCTURE
     1 72M         1 TEMP              0 ****  ****    0 ROOT
