@<TRIPOS>MOLECULE
molecule
   28    30     1     0     0
SMALL
bcc


@<TRIPOS>ATOM
      1 N1           0.0000     0.0000     0.0000 na         1 72N      -0.254800
      2 N3           0.7220    -0.0040     2.0230 nc         1 72N      -0.358000
      3 C5           1.3620     0.0000     0.0000 cd         1 72N       0.365800
      4 C6           2.2570     0.0020    -1.2120 c3         1 72N      -0.104400
      5 C7          -1.7820    -0.0130     1.8410 cx         1 72N      -0.171000
      6 C8          -0.8460     0.0000    -1.1190 ca         1 72N      -0.013200
      7 C10         -2.5070     1.0830    -2.4670 ca         1 72N      -0.121000
      8 C13         -0.8600    -1.0890    -1.9810 ca         1 72N      -0.118500
      9 C15         -2.2090     1.1590     2.7270 cx         1 72N      -0.117400
     10 C11         -2.5140     0.0000    -3.3270 ca         1 72N      -0.119000
     11 C12         -1.6930    -1.0850    -3.0820 ca         1 72N      -0.121000
     12 C14         -1.9720    -0.2210     3.3440 cx         1 72N      -0.117400
     13 C2          -0.3720    -0.0070     1.3110 cd         1 72N       0.406800
     14 C9          -1.6760     1.0860    -1.3640 ca         1 72N      -0.118500
     15 N4           1.7480     0.0000     1.2470 nc         1 72N      -0.353000
     16 H1           2.0400     0.8720    -1.8200 hc         1 72N       0.057700
     17 H2           2.0820    -0.8970    -1.7920 hc         1 72N       0.057700
     18 H3           3.2930     0.0310    -0.8970 hc         1 72N       0.057700
     19 H4          -2.5710    -0.4240     1.2230 hc         1 72N       0.092700
     20 H5          -3.1530     1.9310    -2.6600 ha         1 72N       0.139500
     21 H6          -0.2170    -1.9390    -1.7900 ha         1 72N       0.146500
     22 H7          -1.4420     1.8980     2.9270 hc         1 72N       0.084700
     23 H8          -3.2450     1.4600     2.6380 hc         1 72N       0.084700
     24 H9          -3.1670     0.0000    -4.1910 ha         1 72N       0.137000
     25 H10         -1.7030    -1.9330    -3.7570 ha         1 72N       0.139500
     26 H11         -2.8650    -0.7630     3.6320 hc         1 72N       0.084700
     27 H12         -1.0610    -0.3260     3.9210 hc         1 72N       0.084700
     28 H13         -1.6720     1.9350    -0.6910 ha         1 72N       0.146500
@<TRIPOS>BOND
     1    15     3 2   
     2    15     2 1   
     3     4     3 1   
     4     3     1 1   
     5     2    13 2   
     6    13     1 1   
     7    13     5 1   
     8     1     6 1   
     9     9    12 1   
    10     9     5 1   
    11    12     5 1   
    12     6     8 ar  
    13     6    14 ar  
    14     8    11 ar  
    15    14     7 ar  
    16    11    10 ar  
    17     7    10 ar  
    18     4    16 1   
    19     4    17 1   
    20     4    18 1   
    21     5    19 1   
    22     7    20 1   
    23     8    21 1   
    24     9    22 1   
    25     9    23 1   
    26    10    24 1   
    27    11    25 1   
    28    12    26 1   
    29    12    27 1   
    30    14    28 1   
@<TRIPOS>SUBSTRUCTURE
     1 72N         1 TEMP              0 ****  ****    0 ROOT
