@<TRIPOS>MOLECULE
molecule
   32    34     1     0     0
SMALL
bcc


@<TRIPOS>ATOM
      1 C1           0.0000     0.0000     0.0000 cc         1 72O      -0.091400
      2 N2           1.8910     0.0000     1.1990 nd         1 72O      -0.658000
      3 C3           1.3520     0.0000     0.0000 cd         1 72O       0.380600
      4 S4          -0.5380     0.0020     1.6770 ss         1 72O      -0.123300
      5 C5          -0.8690     0.0060    -1.1920 cc         1 72O       0.001700
      6 C6           1.0870     0.0020     2.2090 cc         1 72O       0.429700
      7 N7          -0.6140     0.6300    -2.3770 na         1 72O      -0.034600
      8 N8          -1.6940     0.3810    -3.2320 nc         1 72O      -0.502800
      9 C9          -2.0880    -0.6250    -1.3180 cd         1 72O      -0.330300
     10 C10         -2.5690    -0.3610    -2.6010 cd         1 72O       0.336200
     11 C11          2.1970     2.8070     5.9080 ca         1 72O      -0.152000
     12 C12          1.5190     0.0010     3.6530 c3         1 72O       0.123100
     13 O13          1.6560     1.3490     4.1090 os         1 72O      -0.318900
     14 C14          2.0430     1.5270     5.3990 ca         1 72O       0.152100
     15 C15          2.5950     2.9860     7.2200 ca         1 72O       0.065400
     16 C16          2.1720    -0.0020    -1.2650 c3         1 72O      -0.123400
     17 Cl1          2.7940     4.5890     7.8560 cl         1 72O      -0.100400
     18 C18          2.6790     0.6090     7.5220 ca         1 72O      -0.079000
     19 C19          2.2860     0.4270     6.2100 ca         1 72O      -0.223000
     20 C20          2.8360     1.8880     8.0260 ca         1 72O      -0.159000
     21 H1           0.1990     1.1700    -2.5970 hn         1 72O       0.333700
     22 H2          -2.5870    -1.2120    -0.5570 ha         1 72O       0.159000
     23 H3          -3.5080    -0.7150    -3.0100 h4         1 72O       0.051100
     24 H5           2.4700    -0.5100     3.7450 h1         1 72O       0.059700
     25 H6           0.7750    -0.5090     4.2530 h1         1 72O       0.059700
     26 H7           2.1770     0.9930    -1.6930 hc         1 72O       0.055033
     27 H8           1.7400    -0.6980    -1.9740 hc         1 72O       0.055033
     28 H9           3.1870    -0.3020    -1.0360 hc         1 72O       0.055033
     29 H10          2.8680    -0.2490     8.1540 ha         1 72O       0.138000
     30 H11          2.1650    -0.5740     5.8150 ha         1 72O       0.136000
     31 H12          3.1460     2.0290     9.0550 ha         1 72O       0.146000
     32 H4           2.0270     3.6670     5.2710 ha         1 72O       0.159000
@<TRIPOS>BOND
     1    19    18 ar  
     2    19    14 ar  
     3    18    20 ar  
     4     8     7 1   
     5     8    10 2   
     6     7     5 1   
     7    16     3 1   
     8    20    15 ar  
     9    14    13 1   
    10    14    11 ar  
    11    13    12 1   
    12     3     1 2   
    13     3     2 1   
    14    10     9 1   
    15     5     1 1   
    16     5     9 2   
    17     1     4 1   
    18     2     6 2   
    19     6     4 1   
    20     6    12 1   
    21    15    11 ar  
    22    15    17 1   
    23     7    21 1   
    24     9    22 1   
    25    10    23 1   
    26    11    32 1   
    27    12    24 1   
    28    12    25 1   
    29    16    26 1   
    30    16    27 1   
    31    16    28 1   
    32    18    29 1   
    33    19    30 1   
    34    20    31 1   
@<TRIPOS>SUBSTRUCTURE
     1 72O         1 TEMP              0 ****  ****    0 ROOT
