@<TRIPOS>MOLECULE
molecule
   42    45     1     0     0
SMALL
bcc


@<TRIPOS>ATOM
      1 Cl1          0.0000     0.0000     0.0000 cl         1 72P      -0.129400
      2 C1           1.7360     0.0000     0.0000 ca         1 72P       0.041400
      3 C2           2.4240     0.0000     1.2070 ca         1 72P      -0.153000
      4 C3           3.7900    -0.0000     1.2260 ca         1 72P      -0.058000
      5 C4           4.5020    -0.0000     0.0250 ca         1 72P      -0.067800
      6 C5           5.9310     0.0010    -0.3120 cc         1 72P      -0.041600
      7 S1           7.2760     0.0010     0.8270 ss         1 72P      -0.218500
      8 C6           7.5790    -1.7160     1.0820 ca         1 72P      -0.008100
      9 C7           6.8060    -2.6650     0.4210 ca         1 72P      -0.158000
     10 C8           7.0400    -4.0120     0.6180 ca         1 72P      -0.156000
     11 C9           8.0410    -4.4260     1.4740 ca         1 72P      -0.094000
     12 C10          8.8230    -3.4820     2.1430 ca         1 72P      -0.095600
     13 C11          9.8950    -3.9230     3.0590 c          1 72P       0.882200
     14 O1          10.5740    -3.1000     3.6400 o          1 72P      -0.834800
     15 O2          10.1210    -5.2380     3.2480 o          1 72P      -0.834800
     16 C12          8.5920    -2.1220     1.9400 ca         1 72P      -0.084000
     17 C13          6.0190     0.0010    -1.6560 cd         1 72P       0.010700
     18 C14          7.3050     0.0020    -2.4410 c3         1 72P      -0.039900
     19 N1           4.7550     0.0010    -2.2040 na         1 72P      -0.005500
     20 C15          4.4730     0.0020    -3.5750 ca         1 72P       0.003800
     21 C16          4.8320    -1.0870    -4.3590 ca         1 72P      -0.123000
     22 C17          4.5510    -1.0830    -5.7120 ca         1 72P      -0.124500
     23 C18          3.9140     0.0020    -6.2850 ca         1 72P      -0.130000
     24 C19          3.5570     1.0870    -5.5060 ca         1 72P      -0.124500
     25 C20          3.8300     1.0880    -4.1530 ca         1 72P      -0.123000
     26 C21          3.8110    -0.0000    -1.2000 ca         1 72P      -0.031200
     27 C22          2.4200    -0.0050    -1.1980 ca         1 72P      -0.139000
     28 H1           1.8730    -0.0000     2.1400 ha         1 72P       0.140000
     29 H2           4.3200    -0.0000     2.1710 ha         1 72P       0.156000
     30 H3           6.0180    -2.3460    -0.2520 ha         1 72P       0.114000
     31 H4           6.4340    -4.7470     0.1010 ha         1 72P       0.107000
     32 H5           8.2210    -5.4840     1.6250 ha         1 72P       0.155000
     33 H7           9.1950    -1.3850     2.4560 ha         1 72P       0.154000
     34 H8           8.1200     0.3110    -1.7980 hc         1 72P       0.060700
     35 H9           7.5000    -0.9960    -2.8160 hc         1 72P       0.060700
     36 H10          7.2200     0.6900    -3.2730 hc         1 72P       0.060700
     37 H11          5.3300    -1.9380    -3.9110 ha         1 72P       0.148500
     38 H12          4.8300    -1.9320    -6.3250 ha         1 72P       0.133500
     39 H13          3.6970     0.0040    -7.3460 ha         1 72P       0.128000
     40 H14          3.0560     1.9350    -5.9580 ha         1 72P       0.133500
     41 H15          3.5490     1.9390    -3.5440 ha         1 72P       0.148500
     42 H16          1.8770    -0.1030    -2.1300 ha         1 72P       0.139000
@<TRIPOS>BOND
     1     1     2 1
     2    24    25 ar
     3    24    23 ar
     4     2    27 ar
     5     2     3 ar
     6    27    26 ar
     7    25    20 ar
     8    23    22 ar
     9     3     4 ar
    10    20    21 ar
    11    20    19 1
    12    22    21 ar
    13    26    19 1
    14    26     5 ar
    15    19    17 1
    16     4     5 ar
    17     5     6 1
    18    17     6 2
    19    17    18 1
    20     6     7 1
    21     7     8 1
    22     9     8 ar
    23     9    10 ar
    24     8    16 ar
    25    10    11 ar
    26    16    12 ar
    27    11    12 ar
    28    12    13 1
    29    14    13 1
    30    13    15 1
    31     3    28 1
    32     4    29 1
    33     9    30 1
    34    10    31 1
    35    11    32 1
    36    16    33 1
    37    18    34 1
    38    18    35 1
    39    18    36 1
    40    21    37 1
    41    22    38 1
    42    23    39 1
    43    24    40 1
    44    25    41 1
    45    27    42 1
@<TRIPOS>SUBSTRUCTURE
     1 72P         1 TEMP              0 ****  ****    0 ROOT
