@<TRIPOS>MOLECULE
72Q
   38    40     1     0     0
SMALL
bcc


@<TRIPOS>ATOM
      1 N1          -1.3020     0.0120    -2.2140 n1         1 72Q      -0.349800
      2 C16         -0.7190    -0.0000    -1.2390 cg         1 72Q       0.214800
      3 C11          0.0000     0.0000     0.0000 ca         1 72Q       0.080000
      4 C12          1.3950     0.0000     0.0000 ca         1 72Q      -0.119000
      5 C13          2.0830     0.0000     1.2020 ca         1 72Q       0.132100
      6 C14          1.3870    -0.0000     2.4030 ca         1 72Q      -0.134000
      7 C15          0.0020    -0.0010     2.4060 ca         1 72Q       0.127900
      8 F3          -0.6700    -0.0030     3.5780 f          1 72Q      -0.117900
      9 C10         -0.6950     0.0060     1.2120 ca         1 72Q      -0.116000
     10 O4           3.4430     0.0000     1.2060 os         1 72Q      -0.207200
     11 C2           4.0820     1.1090     0.7510 ca         1 72Q       0.229100
     12 C3           3.3530     2.2430     0.4240 ca         1 72Q      -0.234000
     13 C4           4.0050     3.3700    -0.0370 ca         1 72Q       0.060000
     14 C8           5.4650     1.1080     0.6210 ca         1 72Q      -0.206300
     15 C9           6.4780     0.0210     0.9100 c3         1 72Q       0.250900
     16 F2           6.0220    -1.2090     0.4220 f          1 72Q      -0.209300
     17 C5           7.7580     0.4530     0.1670 c3         1 72Q       0.131600
     18 F1           7.7960    -0.0940    -1.1200 f          1 72Q      -0.194300
     19 C7           6.1120     2.2380     0.1590 ca         1 72Q       0.043700
     20 C6           7.6050     1.9880     0.1060 c3         1 72Q       0.193400
     21 O1           8.1490     2.4930    -1.1140 oh         1 72Q      -0.505800
     22 C1           5.3800     3.3660    -0.1720 ca         1 72Q      -0.150500
     23 S1           6.2070     4.8060    -0.7630 sy         1 72Q       0.870300
     24 O2           7.0360     4.3280    -1.8130 o          1 72Q      -0.569300
     25 O3           5.1590     5.7310    -1.0190 o          1 72Q      -0.569300
     26 C17          7.2130     5.3580     0.6430 c3         1 72Q       0.014700
     27 H1           1.9380     0.0000    -0.9370 ha         1 72Q       0.138000
     28 H2           1.9280    -0.0000     3.3410 ha         1 72Q       0.135000
     29 H3          -1.7780     0.0050     1.2160 ha         1 72Q       0.134000
     30 H4           2.2750     2.2460     0.5300 ha         1 72Q       0.133000
     31 H5           3.4380     4.2560    -0.2940 ha         1 72Q       0.137000
     32 H6           6.6670    -0.0390     1.9750 h1         1 72Q       0.036700
     33 H7           8.6400     0.1800     0.7340 h1         1 72Q       0.036700
     34 H8           8.0910     2.4460     0.9590 h1         1 72Q       0.015700
     35 H9           9.0830     2.3600    -1.1210 ho         1 72Q       0.384000
     36 H10          8.2490     5.0880     0.4730 h1         1 72Q       0.060700
     37 H11          6.8600     4.8810     1.5490 h1         1 72Q       0.060700
     38 H12          7.1320     6.4330     0.7450 h1         1 72Q       0.060700
@<TRIPOS>BOND
     1     1     2 3   
     2     2     3 1   
     3     3     4 ar  
     4     3     9 ar  
     5     4     5 ar  
     6     4    27 1   
     7     5     6 ar  
     8     5    10 1   
     9     6     7 ar  
    10     6    28 1   
    11     7     8 1   
    12     7     9 ar  
    13     9    29 1   
    14    10    11 1   
    15    11    12 ar  
    16    11    14 ar  
    17    12    13 ar  
    18    12    30 1   
    19    13    22 ar  
    20    13    31 1   
    21    14    15 1   
    22    14    19 ar  
    23    15    16 1   
    24    15    17 1   
    25    15    32 1   
    26    17    18 1   
    27    17    20 1   
    28    17    33 1   
    29    19    20 1   
    30    19    22 ar  
    31    20    21 1   
    32    20    34 1   
    33    21    35 1   
    34    22    23 1   
    35    23    24 2   
    36    23    25 2   
    37    23    26 1   
    38    26    36 1   
    39    26    37 1   
    40    26    38 1   
@<TRIPOS>SUBSTRUCTURE
     1 72Q         1 TEMP              0 ****  ****    0 ROOT
