@<TRIPOS>MOLECULE
molecule
   38    40     1     0     0
SMALL
bcc


@<TRIPOS>ATOM
      1 N1          -1.3020     0.0120    -2.2140 n1         1 72Q      -0.332800
      2 C16         -0.7190    -0.0000    -1.2390 cg         1 72Q       0.230800
      3 C11          0.0000     0.0000     0.0000 ca         1 72Q       0.026000
      4 C12          1.3950     0.0000     0.0000 ca         1 72Q      -0.130000
      5 C13          2.0830     0.0000     1.2020 ca         1 72Q       0.121100
      6 C14          1.3870    -0.0000     2.4030 ca         1 72Q      -0.157000
      7 C15          0.0020    -0.0010     2.4060 ca         1 72Q       0.146900
      8 F3          -0.6700    -0.0030     3.5780 f          1 72Q      -0.125900
      9 C10         -0.6950     0.0060     1.2120 ca         1 72Q      -0.137000
     10 O4           3.4430     0.0000     1.2060 os         1 72Q      -0.228200
     11 C2           4.0820     1.1090     0.7510 ca         1 72Q       0.215100
     12 C3           3.3530     2.2430     0.4240 ca         1 72Q      -0.230000
     13 C4           4.0050     3.3700    -0.0370 ca         1 72Q       0.018000
     14 C8           5.4650     1.1080     0.6210 ca         1 72Q      -0.172300
     15 C9           6.4780     0.0210     0.9100 c3         1 72Q       0.213900
     16 F2           6.0220    -1.2090     0.4220 f          1 72Q      -0.212300
     17 C5           7.7580     0.4530     0.1670 c3         1 72Q       0.121600
     18 F1           7.7960    -0.0940    -1.1200 f          1 72Q      -0.199300
     19 C7           6.1120     2.2380     0.1590 ca         1 72Q       0.045700
     20 C6           7.6050     1.9880     0.1060 c3         1 72Q       0.139400
     21 O1           8.1490     2.4930    -1.1140 oh         1 72Q      -0.535800
     22 C1           5.3800     3.3660    -0.1720 ca         1 72Q      -0.292500
     23 S1           6.2070     4.8060    -0.7630 sy         1 72Q       1.192300
     24 O2           7.0360     4.3280    -1.8130 o          1 72Q      -0.599300
     25 O3           5.1590     5.7310    -1.0190 o          1 72Q      -0.599300
     26 C17          7.2130     5.3580     0.6430 c3         1 72Q      -0.236300
     27 H1           1.9380     0.0000    -0.9370 ha         1 72Q       0.168000
     28 H2           1.9280    -0.0000     3.3410 ha         1 72Q       0.165000
     29 H3          -1.7780     0.0050     1.2160 ha         1 72Q       0.163000
     30 H4           2.2750     2.2460     0.5300 ha         1 72Q       0.155000
     31 H5           3.4380     4.2560    -0.2940 ha         1 72Q       0.171000
     32 H6           6.6670    -0.0390     1.9750 h1         1 72Q       0.072700
     33 H7           8.6400     0.1800     0.7340 h1         1 72Q       0.070700
     34 H8           8.0910     2.4460     0.9590 h1         1 72Q       0.051700
     35 H9           9.0830     2.3600    -1.1210 ho         1 72Q       0.407000
     36 H10          8.2490     5.0880     0.4730 h1         1 72Q       0.097700
     37 H11          6.8600     4.8810     1.5490 h1         1 72Q       0.097700
     38 H12          7.1320     6.4330     0.7450 h1         1 72Q       0.097700
@<TRIPOS>BOND
     1    18    17 1   
     2    16    15 1   
     3    17    15 1   
     4    17    20 1   
     5    15    14 1   
     6    21    20 1   
     7    20    19 1   
     8    10     5 1   
     9    10    11 1   
    10    14    11 ar  
    11    14    19 ar  
    12     6     5 ar  
    13     6     7 ar  
    14     5     4 ar  
    15     8     7 1   
    16     7     9 ar  
    17    11    12 ar  
    18    19    22 ar  
    19     4     3 ar  
    20     9     3 ar  
    21     3     2 1   
    22    24    23 2   
    23    12    13 ar  
    24    22    13 ar  
    25    22    23 1   
    26     2     1 3   
    27    23    26 1   
    28    23    25 2   
    29     4    27 1   
    30     6    28 1   
    31     9    29 1   
    32    12    30 1   
    33    13    31 1   
    34    15    32 1   
    35    17    33 1   
    36    20    34 1   
    37    21    35 1   
    38    26    36 1   
    39    26    37 1   
    40    26    38 1   
@<TRIPOS>SUBSTRUCTURE
     1 72Q         1 TEMP              0 ****  ****    0 ROOT
