@<TRIPOS>MOLECULE
molecule
   16    17     1     0     0
SMALL
bcc


@<TRIPOS>ATOM
      1 O11          0.0000     0.0000     0.0000 o          1 72R      -0.546500
      2 C8           1.2130     0.0000     0.0000 c          1 72R       0.616500
      3 N7           2.0070     0.0000     1.0840 ns         1 72R      -0.462100
      4 C6           3.3550     0.0010     0.7270 ca         1 72R       0.078600
      5 C5           4.5080     0.0070     1.5000 ca         1 72R      -0.149000
      6 C4           5.7520     0.0130     0.8960 ca         1 72R      -0.101000
      7 C3           5.8660     0.0140    -0.4860 ca         1 72R       0.092900
      8 F10          7.0890     0.0190    -1.0620 f          1 72R      -0.132900
      9 C2           4.7310     0.0070    -1.2730 ca         1 72R      -0.060000
     10 C1           3.4730     0.0020    -0.6710 ca         1 72R      -0.226600
     11 C9           2.1000    -0.0060    -1.2100 c          1 72R       0.510700
     12 O12          1.7620    -0.0080    -2.3760 o          1 72R      -0.433100
     13 H1           1.6740    -0.0010     2.0280 hn         1 72R       0.348500
     14 H2           4.4330     0.0060     2.5810 ha         1 72R       0.145000
     15 H3           6.6450     0.0180     1.5080 ha         1 72R       0.155000
     16 H4           4.8180     0.0070    -2.3530 ha         1 72R       0.164000
@<TRIPOS>BOND
     1     8     7 1
     2     6     7 ar
     3     6     5 ar
     4     7     9 ar
     5     5     4 ar
     6     9    10 ar
     7     4    10 ar
     8     4     3 1
     9    10    11 1
    10     3     2 1
    11    12    11 2
    12    11     2 1
    13     2     1 2
    14     3    13 1
    15     5    14 1
    16     6    15 1
    17     9    16 1
@<TRIPOS>SUBSTRUCTURE
     1 72R         1 TEMP              0 ****  ****    0 ROOT
