@<TRIPOS>MOLECULE
72S
   19    20     1     0     0
SMALL
bcc


@<TRIPOS>ATOM
      1 C10          0.0000     0.0000     0.0000 c3         1 72S       0.066200
      2 C5           1.5070     0.0000     0.0000 ca         1 72S      -0.124300
      3 C4           2.1960     0.0000     1.1980 ca         1 72S      -0.035000
      4 C3           3.5810     0.0010     1.2180 ca         1 72S      -0.143000
      5 C2           4.2890    -0.0000     0.0330 ca         1 72S       0.017000
      6 C1           3.6040    -0.0010    -1.1820 ca         1 72S      -0.259600
      7 C6           2.1990    -0.0070    -1.2030 ca         1 72S      -0.059400
      8 N7           1.7510    -0.0140    -2.5230 ns         1 72S      -0.012100
      9 C8           2.7790    -0.0190    -3.3900 c          1 72S       0.509500
     10 O11          2.6960    -0.0240    -4.6000 o          1 72S      -0.592500
     11 C9           4.0470    -0.0020    -2.5880 c          1 72S       0.557700
     12 O12          5.1870    -0.0010    -3.0050 o          1 72S      -0.471100
     13 H1          -0.3610     0.8790    -0.5200 hc         1 72S       0.009367
     14 H2          -0.3610    -0.8900    -0.5010 hc         1 72S       0.009367
     15 H3          -0.3610     0.0110     1.0210 hc         1 72S       0.009367
     16 H4           1.6470     0.0010     2.1320 ha         1 72S       0.108000
     17 H5           4.1090     0.0010     2.1640 ha         1 72S       0.113000
     18 H6           5.3720     0.0000     0.0460 ha         1 72S       0.113000
     19 H7           0.7870    -0.0160    -2.7910 hn         1 72S       0.183500
@<TRIPOS>BOND
     1     1     2 1   
     2     1    13 1   
     3     1    14 1   
     4     1    15 1   
     5     2     3 ar  
     6     2     7 ar  
     7     3     4 ar  
     8     3    16 1   
     9     4     5 ar  
    10     4    17 1   
    11     5     6 ar  
    12     5    18 1   
    13     6     7 ar  
    14     6    11 1   
    15     7     8 1   
    16     8     9 1   
    17     8    19 1   
    18     9    10 2   
    19     9    11 1   
    20    11    12 2   
@<TRIPOS>SUBSTRUCTURE
     1 72S         1 TEMP              0 ****  ****    0 ROOT
