@<TRIPOS>MOLECULE
molecule
   19    20     1     0     0
SMALL
bcc


@<TRIPOS>ATOM
      1 C10          0.0000     0.0000     0.0000 c3         1 72S      -0.047800
      2 C5           1.5070     0.0000     0.0000 ca         1 72S      -0.125300
      3 C4           2.1960     0.0000     1.1980 ca         1 72S      -0.062000
      4 C3           3.5810     0.0010     1.2180 ca         1 72S      -0.169000
      5 C2           4.2890    -0.0000     0.0330 ca         1 72S      -0.024000
      6 C1           3.6040    -0.0010    -1.1820 ca         1 72S      -0.247600
      7 C6           2.1990    -0.0070    -1.2030 ca         1 72S       0.091600
      8 N7           1.7510    -0.0140    -2.5230 ns         1 72S      -0.462100
      9 C8           2.7790    -0.0190    -3.3900 c          1 72S       0.614500
     10 O11          2.6960    -0.0240    -4.6000 o          1 72S      -0.552500
     11 C9           4.0470    -0.0020    -2.5880 c          1 72S       0.511700
     12 O12          5.1870    -0.0010    -3.0050 o          1 72S      -0.442100
     13 H1          -0.3610     0.8790    -0.5200 hc         1 72S       0.046033
     14 H2          -0.3610    -0.8900    -0.5010 hc         1 72S       0.046033
     15 H3          -0.3610     0.0110     1.0210 hc         1 72S       0.046033
     16 H4           1.6470     0.0010     2.1320 ha         1 72S       0.140000
     17 H5           4.1090     0.0010     2.1640 ha         1 72S       0.142000
     18 H6           5.3720     0.0000     0.0460 ha         1 72S       0.148000
     19 H7           0.7870    -0.0160    -2.7910 hn         1 72S       0.345500
@<TRIPOS>BOND
     1     3     4 ar  
     2     3     2 ar  
     3     4     5 ar  
     4     1     2 1   
     5     2     7 ar  
     6     5     6 ar  
     7     7     6 ar  
     8     7     8 1   
     9     6    11 1   
    10     8     9 1   
    11    12    11 2   
    12    11     9 1   
    13     9    10 2   
    14     1    13 1   
    15     1    14 1   
    16     1    15 1   
    17     3    16 1   
    18     4    17 1   
    19     5    18 1   
    20     8    19 1   
@<TRIPOS>SUBSTRUCTURE
     1 72S         1 TEMP              0 ****  ****    0 ROOT
