@<TRIPOS>MOLECULE
72T
   19    20     1     0     0
SMALL
bcc


@<TRIPOS>ATOM
      1 F13          0.0000     0.0000     0.0000 f          1 72T      -0.206300
      2 C10          1.3990     0.0000     0.0000 c3         1 72T       0.642200
      3 F14          1.8650     0.0000     1.3190 f          1 72T      -0.206300
      4 F15          1.8650    -1.1420    -0.6600 f          1 72T      -0.206300
      5 C5           1.9010     1.2310    -0.7100 ca         1 72T      -0.251300
      6 C4           1.0010     2.1420    -1.2300 ca         1 72T       0.020000
      7 C3           1.4440     3.2780    -1.8850 ca         1 72T      -0.155000
      8 C2           2.7980     3.5120    -2.0260 ca         1 72T       0.057000
      9 C1           3.7150     2.5990    -1.5050 ca         1 72T      -0.273600
     10 C6           3.2670     1.4480    -0.8350 ca         1 72T       0.003600
     11 N7           4.3620     0.7020    -0.4050 ns         1 72T      -0.011100
     12 C8           5.5220     1.2910    -0.7440 c          1 72T       0.512500
     13 O11          6.6350     0.8730    -0.5030 o          1 72T      -0.572500
     14 C9           5.1880     2.5510    -1.4860 c          1 72T       0.557700
     15 O12          5.9610     3.3600    -1.9550 o          1 72T      -0.462100
     16 H1          -0.0620     1.9660    -1.1230 ha         1 72T       0.123000
     17 H2           0.7290     3.9840    -2.2880 ha         1 72T       0.121000
     18 H3           3.1460     4.4010    -2.5380 ha         1 72T       0.116000
     19 H4           4.2940    -0.1630     0.0940 hn         1 72T       0.194500
@<TRIPOS>BOND
     1     1     2 1   
     2     2     3 1   
     3     2     4 1   
     4     2     5 1   
     5     5     6 ar  
     6     5    10 ar  
     7     6     7 ar  
     8     6    16 1   
     9     7     8 ar  
    10     7    17 1   
    11     8     9 ar  
    12     8    18 1   
    13     9    10 ar  
    14     9    14 1   
    15    10    11 1   
    16    11    12 1   
    17    11    19 1   
    18    12    13 2   
    19    12    14 1   
    20    14    15 2   
@<TRIPOS>SUBSTRUCTURE
     1 72T         1 TEMP              0 ****  ****    0 ROOT
