@<TRIPOS>MOLECULE
molecule
   19    20     1     0     0
SMALL
bcc


@<TRIPOS>ATOM
      1 F13          0.0000     0.0000     0.0000 f          1 72T      -0.221300
      2 C10          1.3990     0.0000     0.0000 c3         1 72T       0.675200
      3 F14          1.8650     0.0000     1.3190 f          1 72T      -0.221300
      4 F15          1.8650    -1.1420    -0.6600 f          1 72T      -0.221300
      5 C5           1.9010     1.2310    -0.7100 ca         1 72T      -0.228300
      6 C4           1.0010     2.1420    -1.2300 ca         1 72T      -0.019000
      7 C3           1.4440     3.2780    -1.8850 ca         1 72T      -0.178000
      8 C2           2.7980     3.5120    -2.0260 ca         1 72T       0.007000
      9 C1           3.7150     2.5990    -1.5050 ca         1 72T      -0.257600
     10 C6           3.2670     1.4480    -0.8350 ca         1 72T       0.141600
     11 N7           4.3620     0.7020    -0.4050 ns         1 72T      -0.459100
     12 C8           5.5220     1.2910    -0.7440 c          1 72T       0.616500
     13 O11          6.6350     0.8730    -0.5030 o          1 72T      -0.535500
     14 C9           5.1880     2.5510    -1.4860 c          1 72T       0.511700
     15 O12          5.9610     3.3600    -1.9550 o          1 72T      -0.433100
     16 H1          -0.0620     1.9660    -1.1230 ha         1 72T       0.159000
     17 H2           0.7290     3.9840    -2.2880 ha         1 72T       0.151000
     18 H3           3.1460     4.4010    -2.5380 ha         1 72T       0.155000
     19 H4           4.2940    -0.1630     0.0940 hn         1 72T       0.356500
@<TRIPOS>BOND
     1     4     2 1
     2     6     7 ar
     3     6     5 ar
     4     7     8 ar
     5     1     2 1
     6     2     5 1
     7     2     3 1
     8     5    10 ar
     9     8     9 ar
    10    10     9 ar
    11    10    11 1
    12     9    14 1
    13    11    12 1
    14    15    14 2
    15    14    12 1
    16    12    13 2
    17     6    16 1
    18     7    17 1
    19     8    18 1
    20    11    19 1
@<TRIPOS>SUBSTRUCTURE
     1 72T         1 TEMP              0 ****  ****    0 ROOT
