@<TRIPOS>MOLECULE
molecule
   22    23     1     0     0
SMALL
bcc


@<TRIPOS>ATOM
      1 C14          0.0000     0.0000     0.0000 c3         1 72U       0.140700
      2 O13          1.4520     0.0000     0.0000 os         1 72U      -0.425900
      3 C10          2.0630     0.0000     1.2010 c          1 72U       0.660700
      4 O15          1.4010     0.0000     2.2200 o          1 72U      -0.570000
      5 C5           3.5350     0.0010     1.2780 ca         1 72U      -0.187600
      6 C4           4.2990     0.0070     0.1070 ca         1 72U      -0.012000
      7 C3           5.6770     0.0080     0.1680 ca         1 72U      -0.194000
      8 C2           6.3210     0.0020     1.3920 ca         1 72U       0.013000
      9 C1           5.5780    -0.0040     2.5710 ca         1 72U      -0.273600
     10 C6           4.1740     0.0010     2.5280 ca         1 72U       0.160600
     11 N7           3.6660    -0.0000     3.8160 ns         1 72U      -0.448100
     12 C8           4.6470     0.0000     4.7350 c          1 72U       0.611500
     13 O11          4.5030    -0.0020     5.9390 o          1 72U      -0.539500
     14 C9           5.9540    -0.0110     3.9980 c          1 72U       0.510700
     15 O12          7.0710    -0.0120     4.4700 o          1 72U      -0.438100
     16 H1          -0.3610     0.8850     0.5110 h1         1 72U       0.052700
     17 H2          -0.3610    -0.8840     0.5110 h1         1 72U       0.052700
     18 H3          -0.3610    -0.0000    -1.0210 h1         1 72U       0.052700
     19 H4           3.8040     0.0120    -0.8570 ha         1 72U       0.158000
     20 H5           6.2570     0.0120    -0.7470 ha         1 72U       0.147000
     21 H6           7.4030     0.0020     1.4340 ha         1 72U       0.152000
     22 H7           2.6890    -0.0010     4.0360 hn         1 72U       0.374500
@<TRIPOS>BOND
     1     7     6 ar
     2     7     8 ar
     3     6     5 ar
     4     4     3 2
     5     8     9 ar
     6     5     3 1
     7     5    10 ar
     8     3     2 1
     9     9    10 ar
    10     9    14 1
    11    10    11 1
    12     2     1 1
    13    15    14 2
    14    14    12 1
    15    11    12 1
    16    12    13 2
    17     1    16 1
    18     1    17 1
    19     1    18 1
    20     6    19 1
    21     7    20 1
    22     8    21 1
    23    11    22 1
@<TRIPOS>SUBSTRUCTURE
     1 72U         1 TEMP              0 ****  ****    0 ROOT
