@<TRIPOS>MOLECULE
molecule
   19    20     1     0     0
SMALL
bcc


@<TRIPOS>ATOM
      1 O11          0.0000     0.0000     0.0000 o          1 72V      -0.553500
      2 C8           1.2120     0.0000     0.0000 c          1 72V       0.616500
      3 C9           2.0990     0.0000     1.2100 c          1 72V       0.511700
      4 O12          1.7610     0.0010     2.3760 o          1 72V      -0.443100
      5 C1           3.4720    -0.0010     0.6720 ca         1 72V      -0.251600
      6 C2           4.7300    -0.0020     1.2730 ca         1 72V      -0.019000
      7 C3           5.8640    -0.0040     0.4860 ca         1 72V      -0.174000
      8 C4           5.7510    -0.0040    -0.8930 ca         1 72V      -0.062000
      9 C5           4.5080    -0.0030    -1.5000 ca         1 72V      -0.172000
     10 C6           3.3540    -0.0020    -0.7280 ca         1 72V       0.096600
     11 N7           2.0080    -0.0070    -1.0840 n          1 72V      -0.376000
     12 C10          1.5200    -0.0150    -2.4650 c3         1 72V       0.096300
     13 H3           4.8170    -0.0020     2.3530 ha         1 72V       0.148000
     14 H4           6.8440    -0.0050     0.9490 ha         1 72V       0.141000
     15 H5           6.6460    -0.0060    -1.5040 ha         1 72V       0.139000
     16 H6           4.4350    -0.0030    -2.5810 ha         1 72V       0.138000
     17 H7           1.9040    -0.8880    -2.9780 h1         1 72V       0.054700
     18 H8           0.4370    -0.0450    -2.4650 h1         1 72V       0.054700
     19 H9           1.8560     0.8820    -2.9710 h1         1 72V       0.054700
@<TRIPOS>BOND
     1     8     7 ar  
     2     8     9 ar  
     3     7     6 ar  
     4     9    10 ar  
     5     6     5 ar  
     6    10     5 ar  
     7    10    11 1   
     8     5     3 1   
     9    11    12 1   
    10    11     2 1   
    11     3     4 2   
    12     3     2 1   
    13     2     1 2   
    14     6    13 1   
    15     7    14 1   
    16     8    15 1   
    17     9    16 1   
    18    12    17 1   
    19    12    18 1   
    20    12    19 1   
@<TRIPOS>SUBSTRUCTURE
     1 72V         1 TEMP              0 ****  ****    0 ROOT
