@<TRIPOS>MOLECULE
72V
   19    20     1     0     0
SMALL
bcc


@<TRIPOS>ATOM
      1 O11          0.0000     0.0000     0.0000 o          1 72V      -0.593500
      2 C8           1.2120     0.0000     0.0000 c          1 72V       0.524500
      3 C9           2.0990     0.0000     1.2100 c          1 72V       0.557700
      4 O12          1.7610     0.0010     2.3760 o          1 72V      -0.472100
      5 C1           3.4720    -0.0010     0.6720 ca         1 72V      -0.265600
      6 C2           4.7300    -0.0020     1.2730 ca         1 72V       0.023000
      7 C3           5.8640    -0.0040     0.4860 ca         1 72V      -0.149000
      8 C4           5.7510    -0.0040    -0.8930 ca         1 72V      -0.033000
      9 C5           4.5080    -0.0030    -1.5000 ca         1 72V      -0.139000
     10 C6           3.3540    -0.0020    -0.7280 ca         1 72V      -0.042400
     11 N7           2.0080    -0.0070    -1.0840 n          1 72V       0.012000
     12 C10          1.5200    -0.0150    -2.4650 c3         1 72V       0.073300
     13 H3           4.8170    -0.0020     2.3530 ha         1 72V       0.112000
     14 H4           6.8440    -0.0050     0.9490 ha         1 72V       0.113000
     15 H5           6.6460    -0.0060    -1.5040 ha         1 72V       0.104000
     16 H6           4.4350    -0.0030    -2.5810 ha         1 72V       0.112000
     17 H7           1.9040    -0.8880    -2.9780 h1         1 72V       0.020367
     18 H8           0.4370    -0.0450    -2.4650 h1         1 72V       0.020367
     19 H9           1.8560     0.8820    -2.9710 h1         1 72V       0.020367
@<TRIPOS>BOND
     1     1     2 2   
     2     2     3 1   
     3     2    11 1   
     4     3     4 2   
     5     3     5 1   
     6     5     6 ar  
     7     5    10 ar  
     8     6     7 ar  
     9     6    13 1   
    10     7     8 ar  
    11     7    14 1   
    12     8     9 ar  
    13     8    15 1   
    14     9    10 ar  
    15     9    16 1   
    16    10    11 1   
    17    11    12 1   
    18    12    17 1   
    19    12    18 1   
    20    12    19 1   
@<TRIPOS>SUBSTRUCTURE
     1 72V         1 TEMP              0 ****  ****    0 ROOT
