@<TRIPOS>MOLECULE
72W
   65    71     1     0     0
SMALL
bcc


@<TRIPOS>ATOM
      1 C6           0.0000     0.0000     0.0000 c3         1 72W       0.020000
      2 C7           2.1440     6.8700     3.1640 ca         1 72W      -0.151000
      3 C8          -1.9350     0.9940     2.6060 c2         1 72W      -0.186000
      4 C10          1.5470     0.0000     0.0000 c3         1 72W      -0.006000
      5 C13          1.9250     0.0000     1.4940 DU         1 72W       0.121000
      6 C17          1.9250     9.2710     3.3300 ca         1 72W       0.017000
      7 C21         -4.4720    -2.1270     0.7650 c2         1 72W      -0.032000
      8 C22         -1.4260     7.8200     2.4130 cp         1 72W      -0.044000
      9 C14          2.9760     5.6530     3.2420 c2         1 72W       0.276000
     10 C11          2.7110     8.1260     3.4110 ca         1 72W       0.130000
     11 C2          -0.3250    -0.5410     1.4160 c3         1 72W       0.066000
     12 C3          -2.8470    -0.7140     1.5510 c2         1 72W      -0.159000
     13 C23          2.7700     1.2070     1.8090 c2         1 72W      -0.151000
     14 C19         -5.1730    -0.3470     2.0470 c2         1 72W       0.055000
     15 N15         -3.2040    -1.7890     0.8640 n2         1 72W      -0.076000
     16 N1          -1.6550    -0.1000     1.8450 na         1 72W       0.284000
     17 C4          -3.8450     0.0580     2.1800 c2         1 72W      -0.180000
     18 N5          -3.2180     1.0860     2.8040 n2         1 72W      -0.073000
     19 O9           0.7000     0.0490     2.2450 os         1 72W      -0.254000
     20 C12          0.7910     6.7730     2.8360 ca         1 72W      -0.080000
     21 C16          0.0130     7.9210     2.7620 cq         1 72W      -0.037000
     22 C18          0.5820     9.1700     3.0160 ca         1 72W      -0.106000
     23 N20         -5.4370    -1.4260     1.3310 n2         1 72W      -0.113000
     24 O24          4.1540     5.7400     3.5280 o          1 72W      -0.391000
     25 O25         -0.5100    -0.8750    -1.0080 oh         1 72W      -0.265000
     26 N26          2.4280     4.4450     2.9970 ns         1 72W      -0.070000
     27 C27          2.4090     2.0300     2.7620 c2         1 72W      -0.117000
     28 C28         -1.9990     6.5750     2.1640 ca         1 72W      -0.075500
     29 C29         -2.2100     8.9700     2.3390 ca         1 72W      -0.075500
     30 O30          2.0480    -1.1740    -0.6420 oh         1 72W      -0.281000
     31 O31          4.0270     8.2260     3.7300 oh         1 72W      -0.214000
     32 O32          2.4740    10.4910     3.5750 oh         1 72W      -0.248000
     33 C33         -4.1140     7.6310     1.7730 ca         1 72W       0.072000
     34 C34         -3.3380     6.4860     1.8460 ca         1 72W      -0.126000
     35 C35         -3.5460     8.8730     2.0140 ca         1 72W      -0.126000
     36 F36         -5.4230     7.5400     1.4550 f          1 72W      -0.092000
     37 C37          3.2530     3.2380     3.0760 DU         1 72W       0.104000
     38 C38         -6.2860     0.4400     2.6920 c3         1 72W      -0.060000
     39 C39         -6.7880     1.5070     1.7180 c3         1 72W      -0.105000
     40 H1          -0.3830     1.0060    -0.1230 h1         1 72W       0.063000
     41 H2          -1.1970     1.6870     2.9930 h5         1 72W       0.169000
     42 H3           1.9240     0.8930    -0.4840 h1         1 72W       0.069000
     43 H4           2.4660    -0.9070     1.7350 ha         1 72W       0.080000
     44 H5          -4.7350    -3.0050     0.1860 h5         1 72W       0.138000
     45 H6          -0.2510    -1.6210     1.4350 h2         1 72W       0.112000
     46 H7           2.7620     0.2960     2.3950 DU         1 72W       0.062000
     47 H8           0.3390     5.8010     2.6830 ha         1 72W       0.115000
     48 H9          -0.0270    10.0640     2.9540 ha         1 72W       0.123000
     49 H10         -0.7480    -0.3720    -1.7690 ho         1 72W       0.191000
     50 H11          1.4510     4.3710     2.7930 hn         1 72W       0.108000
     51 H12          3.3270     2.0020     3.3350 DU         1 72W       0.022000
     52 H13         -1.3940     5.6780     2.2210 ha         1 72W       0.113000
     53 H14         -1.7670     9.9410     2.5270 ha         1 72W       0.113000
     54 H15          2.7100    -0.9320    -1.2680 ho         1 72W       0.192000
     55 H16          4.1130     8.5270     4.6200 ho         1 72W       0.211000
     56 H17          2.5890    10.9530     2.7610 ho         1 72W       0.209000
     57 H18         -3.7850     5.5170     1.6550 ha         1 72W       0.121500
     58 H19         -4.1560     9.7670     1.9560 ha         1 72W       0.121500
     59 H20          3.6610     3.1430     4.0750 ha         1 72W       0.070500
     60 H21          4.0640     3.3070     2.3610 ha         1 72W       0.070500
     61 H22         -5.9160     0.9170     3.5920 hc         1 72W       0.070000
     62 H23         -7.1000    -0.2280     2.9470 hc         1 72W       0.070000
     63 H24         -5.9630     2.1460     1.4260 hc         1 72W       0.044333
     64 H25         -7.5540     2.1030     2.1980 hc         1 72W       0.044333
     65 H26         -7.2010     1.0270     0.8390 hc         1 72W       0.044333
@<TRIPOS>BOND
     1     1     4 1   
     2     1    11 1   
     3     1    25 1   
     4     1    40 1   
     5     2     9 1   
     6     2    10 1   
     7     2    20 1   
     8     3    16 1   
     9     3    18 1   
    10     3    41 1   
    11     4     5 1   
    12     4    30 1   
    13     4    42 1   
    14     5    13 1   
    15     5    19 1   
    16     5    43 1   
    17     5    46 1   
    18     6    10 1   
    19     6    22 1   
    20     6    32 1   
    21     7    15 1   
    22     7    23 1   
    23     7    44 1   
    24     8    21 1   
    25     8    28 1   
    26     8    29 1   
    27     9    24 1   
    28     9    26 1   
    29    10    31 1   
    30    11    16 1   
    31    11    19 1   
    32    11    45 1   
    33    12    15 1   
    34    12    16 1   
    35    12    17 1   
    36    13    27 1   
    37    13    46 1   
    38    14    17 1   
    39    14    23 1   
    40    14    38 1   
    41    17    18 1   
    42    20    21 1   
    43    20    47 1   
    44    21    22 1   
    45    22    48 1   
    46    25    49 1   
    47    26    37 1   
    48    26    50 1   
    49    27    37 1   
    50    27    51 1   
    51    28    34 1   
    52    28    52 1   
    53    29    35 1   
    54    29    53 1   
    55    30    54 1   
    56    31    55 1   
    57    32    56 1   
    58    33    34 1   
    59    33    35 1   
    60    33    36 1   
    61    34    57 1   
    62    35    58 1   
    63    37    51 1   
    64    37    59 1   
    65    37    60 1   
    66    38    39 1   
    67    38    61 1   
    68    38    62 1   
    69    39    63 1   
    70    39    64 1   
    71    39    65 1   
@<TRIPOS>SUBSTRUCTURE
     1 72W         1 TEMP              0 ****  ****    0 ROOT
