@<TRIPOS>MOLECULE
molecule
   65    69     1     0     0
SMALL
bcc


@<TRIPOS>ATOM
      1 C6           0.0000     0.0000     0.0000 c3         1 72W       0.096100
      2 C7           2.1440     6.8700     3.1640 ca         1 72W      -0.154600
      3 C8          -1.9350     0.9940     2.6060 cc         1 72W       0.441700
      4 C10          1.5470     0.0000     0.0000 c3         1 72W       0.091100
      5 C13          1.9250     0.0000     1.4940 c3         1 72W       0.157300
      6 C17          1.9250     9.2710     3.3300 ca         1 72W       0.056100
      7 C21         -4.4720    -2.1270     0.7650 ca         1 72W       0.697900
      8 C22         -1.4260     7.8200     2.4130 cp         1 72W      -0.053000
      9 C14          2.9760     5.6530     3.2420 c          1 72W       0.673700
     10 C11          2.7110     8.1260     3.4110 ca         1 72W       0.160100
     11 C2          -0.3250    -0.5410     1.4160 c3         1 72W       0.262800
     12 C3          -2.8470    -0.7140     1.5510 ca         1 72W       0.451800
     13 C23          2.7700     1.2070     1.8090 c2         1 72W      -0.181200
     14 C19         -5.1730    -0.3470     2.0470 ca         1 72W       0.528600
     15 N15         -3.2040    -1.7890     0.8640 nb         1 72W      -0.737000
     16 N1          -1.6550    -0.1000     1.8450 na         1 72W      -0.256000
     17 C4          -3.8450     0.0580     2.1800 ca         1 72W      -0.152200
     18 N5          -3.2180     1.0860     2.8040 nd         1 72W      -0.588100
     19 O9           0.7000     0.0490     2.2450 os         1 72W      -0.420600
     20 C12          0.7910     6.7730     2.8360 ca         1 72W      -0.096000
     21 C16          0.0130     7.9210     2.7620 cp         1 72W      -0.039000
     22 C18          0.5820     9.1700     3.0160 ca         1 72W      -0.120000
     23 N20         -5.4370    -1.4260     1.3310 nb         1 72W      -0.751000
     24 O24          4.1540     5.7400     3.5280 o          1 72W      -0.577100
     25 O25         -0.5100    -0.8750    -1.0080 oh         1 72W      -0.554800
     26 N26          2.4280     4.4450     2.9970 ns         1 72W      -0.588900
     27 C27          2.4090     2.0300     2.7620 c2         1 72W      -0.172200
     28 C28         -1.9990     6.5750     2.1640 ca         1 72W      -0.095000
     29 C29         -2.2100     8.9700     2.3390 ca         1 72W      -0.095000
     30 O30          2.0480    -1.1740    -0.6420 oh         1 72W      -0.570800
     31 O31          4.0270     8.2260     3.7300 oh         1 72W      -0.482100
     32 O32          2.4740    10.4910     3.5750 oh         1 72W      -0.514100
     33 C33         -4.1140     7.6310     1.7730 ca         1 72W       0.138900
     34 C34         -3.3380     6.4860     1.8460 ca         1 72W      -0.162500
     35 C35         -3.5460     8.8730     2.0140 ca         1 72W      -0.162500
     36 F36         -5.4230     7.5400     1.4550 f          1 72W      -0.136900
     37 C37          3.2530     3.2380     3.0760 c3         1 72W       0.146200
     38 C38         -6.2860     0.4400     2.6920 c3         1 72W      -0.131700
     39 C39         -6.7880     1.5070     1.7180 c3         1 72W      -0.082100
     40 H1          -0.3830     1.0060    -0.1230 h1         1 72W       0.057700
     41 H2          -1.1970     1.6870     2.9920 h5         1 72W       0.082800
     42 H3           1.9240     0.8930    -0.4840 h1         1 72W       0.053700
     43 H4           2.4660    -0.9070     1.7350 h1         1 72W       0.089700
     44 H5          -4.7350    -3.0050     0.1860 h5         1 72W       0.065100
     45 H6          -0.2510    -1.6210     1.4350 h2         1 72W       0.117700
     46 H7           3.6770     1.3940     1.2470 ha         1 72W       0.141000
     47 H8           0.3390     5.8010     2.6800 ha         1 72W       0.133000
     48 H9          -0.0270    10.0640     2.9540 ha         1 72W       0.147000
     49 H10         -0.7480    -0.3720    -1.7690 ho         1 72W       0.407000
     50 H11          1.4570     4.3740     2.7650 hn         1 72W       0.311500
     51 H12          1.5010     1.8440     3.3230 ha         1 72W       0.145000
     52 H13         -1.3940     5.6780     2.2210 ha         1 72W       0.136500
     53 H14         -1.7670     9.9410     2.5270 ha         1 72W       0.136500
     54 H15          2.7040    -0.9310    -1.2740 ho         1 72W       0.407000
     55 H16          4.1130     8.5250     4.6200 ho         1 72W       0.435000
     56 H17          2.5910    10.9520     2.7610 ho         1 72W       0.428000
     57 H18         -3.7850     5.5170     1.6550 ha         1 72W       0.150500
     58 H19         -4.1560     9.7670     1.9560 ha         1 72W       0.150500
     59 H20          4.0640     3.3070     2.3610 h1         1 72W       0.062200
     60 H21          3.6610     3.1430     4.0750 h1         1 72W       0.062200
     61 H22         -7.1000    -0.2280     2.9470 hc         1 72W       0.066700
     62 H23         -5.9160     0.9170     3.5920 hc         1 72W       0.066700
     63 H24         -7.8450     1.3570     1.5320 hc         1 72W       0.039700
     64 H25         -6.2420     1.4290     0.7850 hc         1 72W       0.039700
     65 H26         -6.6320     2.4890     2.1460 hc         1 72W       0.039700
@<TRIPOS>BOND
     1    38    39 1   
     2    38    14 1   
     3    23    14 ar  
     4    23     7 ar  
     5    14    17 ar  
     6     7    15 ar  
     7    17    18 1   
     8    17    12 ar  
     9    18     3 2   
    10    15    12 ar  
    11    12    16 1   
    12     3    16 1   
    13    16    11 1   
    14    31    10 1   
    15    19    11 1   
    16    19     5 1   
    17    37    27 1   
    18    37    26 1   
    19    32     6 1   
    20    11     1 1   
    21    27    13 2   
    22    26     9 1   
    23    10     6 ar  
    24    10     2 ar  
    25     6    22 ar  
    26     9     2 1   
    27     9    24 2   
    28     2    20 ar  
    29    13     5 1   
    30     5     4 1   
    31    22    21 ar  
    32    20    21 ar  
    33     1     4 1   
    34     1    25 1   
    35    21     8 1   
    36    28     8 ar  
    37    28    34 ar  
    38     4    30 1   
    39     8    29 ar  
    40    34    33 ar  
    41    29    35 ar  
    42    33    35 ar  
    43    33    36 1   
    44     1    40 1   
    45     3    41 1   
    46     4    42 1   
    47     5    43 1   
    48     7    44 1   
    49    11    45 1   
    50    13    46 1   
    51    20    47 1   
    52    22    48 1   
    53    25    49 1   
    54    26    50 1   
    55    27    51 1   
    56    28    52 1   
    57    29    53 1   
    58    30    54 1   
    59    31    55 1   
    60    32    56 1   
    61    34    57 1   
    62    35    58 1   
    63    37    59 1   
    64    37    60 1   
    65    38    61 1   
    66    38    62 1   
    67    39    63 1   
    68    39    64 1   
    69    39    65 1   
@<TRIPOS>SUBSTRUCTURE
     1 72W         1 TEMP              0 ****  ****    0 ROOT
