@<TRIPOS>MOLECULE
72X
   81    83     1     0     0
SMALL
bcc


@<TRIPOS>ATOM
      1 C1           0.0000     0.0000     0.0000 c3         1 72X       0.236100
      2 O2           1.4290     0.0000     0.0000 oh         1 72X      -0.588800
      3 C3          -0.5020     0.0000     1.4210 ca         1 72X      -0.079300
      4 C4           0.2450     0.5990     2.4180 ca         1 72X      -0.081000
      5 C5          -1.7130    -0.5930     1.7260 ca         1 72X      -0.104000
      6 C6          -0.2150     0.5990     3.7220 ca         1 72X      -0.094000
      7 C7          -2.1740    -0.5920     3.0310 ca         1 72X      -0.033600
      8 C8          -1.4230     0.0020     4.0290 ca         1 72X      -0.099000
      9 C15         -0.5100     1.2500    -0.7210 c3         1 72X      -0.071400
     10 C18          0.0010     2.5000     0.0000 c3         1 72X      -0.040400
     11 C21         -0.5090     3.7480    -0.7210 c3         1 72X      -0.035400
     12 C24          0.0020     4.9970     0.0010 c3         1 72X       0.211400
     13 O27         -0.4750     6.1640    -0.6720 os         1 72X      -0.418600
     14 C28         -0.0530     7.3930    -0.0760 c3         1 72X       0.255700
     15 C32         -2.3150    -3.6600    -5.7110 c3         1 72X       0.021700
     16 C33         -3.7810    -3.4550    -5.3230 c3         1 72X       0.126800
     17 C34         -2.1640    -4.9940    -6.4430 c3         1 72X      -0.037400
     18 N35         -3.9070    -2.2340    -4.5150 n7         1 72X      -0.592200
     19 C36         -0.7240    -5.1420    -6.9410 c3         1 72X      -0.053700
     20 C37         -0.5400    -6.5270    -7.5630 c3         1 72X      -0.027900
     21 C38          0.9000    -6.6760    -8.0600 c3         1 72X      -0.021900
     22 C39          1.1900    -5.6010    -9.1100 c3         1 72X      -0.025400
     23 C40         -0.4340    -4.0680    -7.9900 c3         1 72X      -0.027900
     24 C41          1.0060    -4.2160    -8.4870 c3         1 72X      -0.021900
     25 N42         -1.4880    -3.6700    -4.5020 ns         1 72X      -0.214900
     26 O44         -1.2630    -1.4600    -4.5520 o          1 72X      -0.717100
     27 N45         -0.3790    -2.5100    -2.8060 n          1 72X      -0.173800
     28 C46         -0.5410    -3.7430    -0.7070 c3         1 72X      -0.041400
     29 C47         -0.0020    -2.4950    -0.0020 c3         1 72X      -0.035400
     30 C48         -0.5110    -1.2490    -0.7220 c3         1 72X      -0.097700
     31 C49          0.0070    -1.2460    -2.1630 c3         1 72X       0.059000
     32 C50         -0.0230    -3.7750    -2.1480 c3         1 72X       0.047000
     33 C51         -5.3050    -2.0040    -4.1240 c3         1 72X       0.178100
     34 Cl1         -3.6950    -1.3370     3.4140 cl         1 72X      -0.030400
     35 HO2          1.7440     0.4670    -0.7570 ho         1 72X       0.400000
     36 H4           1.1920     1.0670     2.1790 ha         1 72X       0.122000
     37 H5          -2.3010    -1.0580     0.9440 ha         1 72X       0.129000
     38 H6           0.3720     1.0660     4.5030 ha         1 72X       0.106000
     39 H8          -1.7830     0.0030     5.0510 ha         1 72X       0.114000
     40 H15         -0.1490     1.2500    -1.7420 hc         1 72X       0.035700
     41 H15A        -1.5930     1.2500    -0.7210 hc         1 72X       0.035700
     42 H18         -0.3600     2.5000     1.0220 hc         1 72X       0.024700
     43 H18A         1.0840     2.5000    -0.0000 hc         1 72X       0.024700
     44 H21         -1.5930     3.7490    -0.7200 hc         1 72X       0.024700
     45 H21A        -0.1490     3.7480    -1.7420 hc         1 72X       0.024700
     46 H24         -0.3580     4.9970     1.0220 h1         1 72X      -0.010800
     47 H24A         1.0850     4.9970    -0.0010 h1         1 72X      -0.010800
     48 H28          1.0300     7.4390    -0.0700 h1         1 72X      -0.014300
     49 H28A        -0.4210     7.4460     0.9420 h1         1 72X      -0.014300
     50 H28B        -0.4470     8.2250    -0.6460 h1         1 72X      -0.014300
     51 H32         -1.9970    -2.8530    -6.3600 h1         1 72X       0.065700
     52 H33         -4.3820    -3.3590    -6.2190 h1         1 72X       0.007200
     53 H33A        -4.1250    -4.3060    -4.7480 h1         1 72X       0.007200
     54 H34         -2.8420    -5.0220    -7.2870 hc         1 72X       0.023200
     55 H34A        -2.3970    -5.8070    -5.7660 hc         1 72X       0.023200
     56 HN35        -3.5750    -1.4500    -5.0410 hn         1 72X       0.281800
     57 H36         -0.0370    -5.0280    -6.1110 hc         1 72X       0.030700
     58 H37         -0.7430    -7.2870    -6.8180 hc         1 72X       0.019200
     59 H37A        -1.2220    -6.6400    -8.3970 hc         1 72X       0.019200
     60 H38          1.5820    -6.5580    -7.2270 hc         1 72X       0.013450
     61 H38A         1.0280    -7.6560    -8.5040 hc         1 72X       0.013450
     62 H39          0.5050    -5.7160    -9.9410 hc         1 72X       0.013200
     63 H39A         2.2100    -5.7050    -9.4590 hc         1 72X       0.013200
     64 H40         -1.1160    -4.1850    -8.8230 hc         1 72X       0.019200
     65 H40A        -0.5620    -3.0880    -7.5470 hc         1 72X       0.019200
     66 H41          1.2090    -3.4560    -9.2330 hc         1 72X       0.013450
     67 H41A         1.6880    -4.1020    -7.6540 hc         1 72X       0.013450
     68 HN42        -1.2200    -4.5400    -4.0860 hn         1 72X       0.179500
     69 H46         -1.6240    -3.7130    -0.7140 hc         1 72X       0.021200
     70 H46A        -0.2020    -4.6280    -0.1830 hc         1 72X       0.021200
     71 H47         -0.3470    -2.4850     1.0250 hc         1 72X       0.033700
     72 H47A         1.0810    -2.5080    -0.0260 hc         1 72X       0.033700
     73 H48         -1.5940    -1.2520    -0.7280 hc         1 72X       0.052700
     74 H49          1.0860    -1.1570    -2.1600 h1         1 72X       0.038700
     75 H49A        -0.4310    -0.4160    -2.7040 h1         1 72X       0.038700
     76 H50          1.0540    -3.8900    -2.1440 h1         1 72X       0.019200
     77 H50A        -0.4810    -4.6010    -2.6800 h1         1 72X       0.019200
     78 H51         -5.6380    -2.8110    -3.4830 h1         1 72X      -0.004633
     79 H51A        -5.9260    -1.9680    -5.0110 h1         1 72X      -0.004633
     80 H51B        -5.3810    -1.0640    -3.5910 h1         1 72X      -0.004633
     81 C43         -1.0510    -2.5090    -3.9740 c          1 72X       0.614100
@<TRIPOS>BOND
     1     1     2 1   
     2     1     3 1   
     3     1     9 1   
     4     1    30 1   
     5     2    35 1   
     6     3     4 ar  
     7     3     5 ar  
     8     4     6 ar  
     9     4    36 1   
    10     5     7 ar  
    11     5    37 1   
    12     6     8 ar  
    13     6    38 1   
    14     7     8 ar  
    15     7    34 1   
    16     8    39 1   
    17     9    10 1   
    18     9    40 1   
    19     9    41 1   
    20    10    11 1   
    21    10    42 1   
    22    10    43 1   
    23    11    12 1   
    24    11    44 1   
    25    11    45 1   
    26    12    13 1   
    27    12    46 1   
    28    12    47 1   
    29    13    14 1   
    30    14    48 1   
    31    14    49 1   
    32    14    50 1   
    33    15    16 1   
    34    15    17 1   
    35    15    25 1   
    36    15    51 1   
    37    16    18 1   
    38    16    52 1   
    39    16    53 1   
    40    17    19 1   
    41    17    54 1   
    42    17    55 1   
    43    18    33 1   
    44    18    56 1   
    45    19    20 1   
    46    19    23 1   
    47    19    57 1   
    48    20    21 1   
    49    20    58 1   
    50    20    59 1   
    51    21    22 1   
    52    21    60 1   
    53    21    61 1   
    54    22    24 1   
    55    22    62 1   
    56    22    63 1   
    57    23    24 1   
    58    23    64 1   
    59    23    65 1   
    60    24    66 1   
    61    24    67 1   
    62    25    68 1   
    63    25    81 1   
    64    26    81 2   
    65    27    31 1   
    66    27    32 1   
    67    27    81 1   
    68    28    29 1   
    69    28    32 1   
    70    28    69 1   
    71    28    70 1   
    72    29    30 1   
    73    29    71 1   
    74    29    72 1   
    75    30    31 1   
    76    30    73 1   
    77    31    74 1   
    78    31    75 1   
    79    32    76 1   
    80    32    77 1   
    81    33    78 1   
    82    33    79 1   
    83    33    80 1   
@<TRIPOS>SUBSTRUCTURE
     1 72X         1 TEMP              0 ****  ****    0 ROOT
