@<TRIPOS>MOLECULE
molecule
   34    36     1     0     0
SMALL
bcc


@<TRIPOS>ATOM
      1 C4           0.0000     0.0000     0.0000 ca         1 72Y       0.963900
      2 C7           1.6740     0.0010     3.7540 cc         1 72Y      -0.160200
      3 C8           1.3050     0.0010     2.3380 ca         1 72Y      -0.364400
      4 N2           1.3280     0.0000     0.0000 nb         1 72Y      -0.776000
      5 C9          -0.1040     0.0010     2.3000 ca         1 72Y       0.530800
      6 C11          0.5300     0.0010     4.4540 cd         1 72Y      -0.107100
      7 C13         -2.4650    -1.4140     4.0310 ca         1 72Y       0.392600
      8 C14         -2.3630    -2.1590     5.1900 ca         1 72Y      -0.177600
      9 C15         -2.8420    -3.4610     5.2000 ca         1 72Y       0.052400
     10 C1           2.0110     0.0000     1.1330 ca         1 72Y       0.616300
     11 Cl3          3.7460     0.0010     1.1220 cl         1 72Y      -0.151000
     12 N5          -0.7090    -0.0000     1.1160 nb         1 72Y      -0.768000
     13 N6          -0.6680     0.0050    -1.2140 nv         1 72Y      -1.033500
     14 N10         -0.5410     0.0010     3.5960 na         1 72Y      -0.165100
     15 C16         -3.4090    -3.9660     4.0380 ca         1 72Y      -0.186600
     16 C17         -3.4760    -3.1600     2.9180 ca         1 72Y       0.424200
     17 N18         -3.0150    -1.9240     2.9460 nb         1 72Y      -0.650000
     18 Cl1         -2.7360    -4.4370     6.6320 cl         1 72Y      -0.091400
     19 C20         -3.9440    -5.3740     3.9980 c3         1 72Y      -0.046800
     20 C21         -1.7380    -1.5650     6.4260 c3         1 72Y      -0.059800
     21 H1           2.6790     0.0010     4.1590 ha         1 72Y       0.164000
     22 H2           0.4610     0.0050     5.5350 h4         1 72Y       0.173000
     23 H3          -2.5290     0.5870     3.3070 h1         1 72Y       0.082200
     24 H4          -2.0330     0.4340     4.9980 h1         1 72Y       0.082200
     25 H5          -1.2790     0.7630    -1.4460 hn         1 72Y       0.447300
     26 H6          -0.5500    -0.7560    -1.8530 hn         1 72Y       0.447300
     27 H7          -3.9190    -3.5450     2.0080 h4         1 72Y       0.034100
     28 H8          -3.1440    -6.0710     4.2140 hc         1 72Y       0.052700
     29 H9          -4.3460    -5.5800     3.0130 hc         1 72Y       0.052700
     30 H10         -4.7280    -5.4840     4.7370 hc         1 72Y       0.052700
     31 H11         -1.6980    -2.3160     7.2070 hc         1 72Y       0.053367
     32 H12         -0.7350    -1.2280     6.1980 hc         1 72Y       0.053367
     33 H13         -2.3340    -0.7250     6.7640 hc         1 72Y       0.053367
     34 C12         -1.9470     0.0020     4.0080 c3         1 72Y       0.010000
@<TRIPOS>BOND
     1    34     7 1
     2    34    14 1
     3    17     7 ar
     4    17    16 ar
     5    13     1 1
     6     7     8 ar
     7    12     1 ar
     8    12     5 ar
     9    16    15 ar
    10     8    20 1
    11     8     9 ar
    12    14     5 1
    13    14     6 1
    14     1     4 ar
    15    15     9 ar
    16    15    19 1
    17     5     3 ar
    18     9    18 1
    19     6     2 2
    20     4    10 ar
    21     3     2 1
    22     3    10 ar
    23    10    11 1
    24     2    21 1
    25     6    22 1
    26    34    23 1
    27    34    24 1
    28    13    25 1
    29    13    26 1
    30    16    27 1
    31    19    28 1
    32    19    29 1
    33    19    30 1
    34    20    31 1
    35    20    32 1
    36    20    33 1
@<TRIPOS>SUBSTRUCTURE
     1 72Y         1 TEMP              0 ****  ****    0 ROOT
