@<TRIPOS>MOLECULE
730
   76    79     1     0     0
SMALL
bcc


@<TRIPOS>ATOM
      1 S1           0.0000     0.0000     0.0000 sy         1 730       0.991200
      2 O39          1.4450     0.0000     0.0000 o          1 730      -0.552300
      3 O38         -0.6820     0.0000     1.2900 o          1 730      -0.552300
      4 N12         -0.5060     1.2410    -0.8500 n7         1 730      -0.563100
      5 C13         -1.8890     1.5240    -1.1330 c3         1 730       0.175500
      6 C24         -2.0530     1.5080    -2.6680 c          1 730       0.556100
      7 N26         -3.2130     1.1390    -3.3750 n          1 730      -0.181800
      8 C31         -3.1890     1.2260    -4.8580 c3         1 730       0.069000
      9 C30         -3.7040    -0.0890    -5.5110 c3         1 730      -0.035400
     10 C29         -3.9940    -1.2020    -4.4730 c3         1 730      -0.027700
     11 C32         -4.4840    -2.5300    -5.1940 c3         1 730      -0.023400
     12 C33         -5.9960    -2.9490    -5.1170 c3         1 730       0.153800
     13 N34         -6.2380    -4.2010    -5.8980 nu         1 730      -0.479200
     14 C35         -7.4240    -4.8200    -6.0290 c2         1 730       0.239100
     15 N37         -7.4910    -5.9180    -6.7650 n2         1 730      -0.636100
     16 N36         -8.5340    -4.3900    -5.4580 nz         1 730       0.219400
     17 C28         -5.0030    -0.6400    -3.4010 c3         1 730      -0.035400
     18 C27         -4.4690     0.6880    -2.7130 c3         1 730       0.069000
     19 O25         -1.0290     1.8710    -3.2740 o          1 730      -0.634100
     20 C14         -2.4930     2.8640    -0.5700 c3         1 730       0.027900
     21 C15         -2.0810     4.1670    -1.2770 ca         1 730      -0.058300
     22 C20         -0.9180     4.9000    -0.8670 ca         1 730      -0.034000
     23 C19         -0.5390     6.1090    -1.5310 ca         1 730      -0.228900
     24 C21          0.6790     6.8830    -1.0940 ce         1 730       0.179800
     25 N23          1.5060     6.3680    -0.2150 n2         1 730      -0.466100
     26 N22          0.9030     8.0670    -1.5950 nz         1 730       0.221400
     27 C18         -1.3390     6.5790    -2.6180 ca         1 730      -0.089000
     28 C17         -2.4910     5.8670    -3.0340 ca         1 730      -0.055000
     29 C16         -2.8630     4.6720    -2.3710 ca         1 730      -0.042000
     30 C2          -0.6040    -1.3590    -0.9750 ca         1 730      -0.165500
     31 C7          -0.1070    -1.6130    -2.2870 ca         1 730       0.009000
     32 C6          -0.6350    -2.7020    -3.0510 ca         1 730      -0.120000
     33 C5          -1.6620    -3.5320    -2.5030 ca         1 730       0.004000
     34 C11         -2.2040    -4.6190    -3.2500 ca         1 730      -0.117000
     35 C10         -3.2310    -5.4340    -2.6860 ca         1 730      -0.087000
     36 C9          -3.7180    -5.1700    -1.3710 ca         1 730      -0.117000
     37 C8          -3.1860    -4.0910    -0.6190 ca         1 730      -0.056000
     38 C4          -2.1600    -3.2670    -1.1730 ca         1 730      -0.080000
     39 C3          -1.6310    -2.1900    -0.4300 ca         1 730       0.033000
     40 HN12         0.1830     1.8700    -1.2140 hn         1 730       0.360800
     41 H13         -2.4770     0.7080    -0.7300 h1         1 730       0.040700
     42 H311        -3.8210     2.0470    -5.1740 h1         1 730       0.029700
     43 H312        -2.1730     1.4080    -5.1850 h1         1 730       0.029700
     44 H301        -4.6170     0.1260    -6.0530 hc         1 730       0.017950
     45 H302        -2.9550    -0.4490    -6.2060 hc         1 730       0.017950
     46 H29         -3.0650    -1.4240    -3.9620 hc         1 730       0.048700
     47 H321        -3.9030    -3.3490    -4.7880 hc         1 730       0.030200
     48 H322        -4.2300    -2.4370    -6.2430 hc         1 730       0.030200
     49 H331        -6.2680    -3.1170    -4.0820 h1         1 730       0.019200
     50 H332        -6.6090    -2.1530    -5.5220 h1         1 730       0.019200
     51 HN34        -5.4520    -4.6100    -6.3640 hn         1 730       0.334800
     52 HN37        -6.6690    -6.2730    -7.2130 hn         1 730       0.380400
     53 H361        -8.7090    -3.4460    -5.7380 hn         1 730       0.222133
     54 H362        -9.3000    -4.9700    -5.7400 hn         1 730       0.222133
     55 H281        -5.9470    -0.4270    -3.8870 hc         1 730       0.017950
     56 H282        -5.1570    -1.3930    -2.6370 hc         1 730       0.017950
     57 H271        -5.2190     1.4640    -2.8040 h1         1 730       0.029700
     58 H272        -4.2710     0.4930    -1.6660 h1         1 730       0.029700
     59 H141        -2.2070     2.9460     0.4720 hc         1 730       0.036200
     60 H142        -3.5730     2.7870    -0.6160 hc         1 730       0.036200
     61 H20         -0.3200     4.5350    -0.0400 ha         1 730       0.113000
     62 HN23         1.3300     5.4600     0.1680 hn         1 730       0.379400
     63 H221         1.7030     8.4720    -1.1500 hn         1 730       0.218800
     64 H222         0.1050     8.6520    -1.4420 hn         1 730       0.218800
     65 H18         -1.0610     7.4930    -3.1290 ha         1 730       0.088000
     66 H17         -3.0880     6.2370    -3.8590 ha         1 730       0.126000
     67 H16         -3.7450     4.1320    -2.6940 ha         1 730       0.115000
     68 H7           0.7270    -1.0380    -2.6710 ha         1 730       0.124000
     69 H6          -0.2580    -2.8960    -4.0480 ha         1 730       0.118000
     70 H11         -1.8390    -4.8240    -4.2480 ha         1 730       0.112000
     71 H10         -3.6390    -6.2590    -3.2570 ha         1 730       0.101000
     72 H9          -4.4970    -5.7930    -0.9480 ha         1 730       0.112000
     73 H8          -3.5570    -3.8930     0.3790 ha         1 730       0.116000
     74 H3          -2.0040    -1.9930     0.5680 ha         1 730       0.133000
     75 H363        -8.4360    -4.4350    -4.4630 hn         1 730       0.222133
     76 H223         1.0680     7.9870    -2.5790 hn         1 730       0.218800
@<TRIPOS>BOND
     1     1     2 2   
     2     1     3 2   
     3     1     4 1   
     4     1    30 1   
     5     4     5 1   
     6     4    40 1   
     7     5     6 1   
     8     5    20 1   
     9     5    41 1   
    10     6     7 1   
    11     6    19 2   
    12     7     8 1   
    13     7    18 1   
    14     8     9 1   
    15     8    42 1   
    16     8    43 1   
    17     9    10 1   
    18     9    44 1   
    19     9    45 1   
    20    10    11 1   
    21    10    17 1   
    22    10    46 1   
    23    11    12 1   
    24    11    47 1   
    25    11    48 1   
    26    12    13 1   
    27    12    49 1   
    28    12    50 1   
    29    13    14 1   
    30    13    51 1   
    31    14    15 2   
    32    14    16 1   
    33    15    52 1   
    34    16    53 1   
    35    16    54 1   
    36    16    75 1   
    37    17    18 1   
    38    17    55 1   
    39    17    56 1   
    40    18    57 1   
    41    18    58 1   
    42    20    21 1   
    43    20    59 1   
    44    20    60 1   
    45    21    22 ar  
    46    21    29 ar  
    47    22    23 ar  
    48    22    61 1   
    49    23    24 1   
    50    23    27 ar  
    51    24    25 2   
    52    24    26 1   
    53    25    62 1   
    54    26    63 1   
    55    26    64 1   
    56    26    76 1   
    57    27    28 ar  
    58    27    65 1   
    59    28    29 ar  
    60    28    66 1   
    61    29    67 1   
    62    30    31 ar  
    63    30    39 ar  
    64    31    32 ar  
    65    31    68 1   
    66    32    33 ar  
    67    32    69 1   
    68    33    34 ar  
    69    33    38 ar  
    70    34    35 ar  
    71    34    70 1   
    72    35    36 ar  
    73    35    71 1   
    74    36    37 ar  
    75    36    72 1   
    76    37    38 ar  
    77    37    73 1   
    78    38    39 ar  
    79    39    74 1   
@<TRIPOS>SUBSTRUCTURE
     1 730         1 TEMP              0 ****  ****    0 ROOT
