@<TRIPOS>MOLECULE
molecule
   47    50     1     0     0
SMALL
bcc


@<TRIPOS>ATOM
      1 O14          0.0000     0.0000     0.0000 o          1 731      -0.605100
      2 C15          3.3530    -0.4760     1.1040 c3         1 731       0.096000
      3 C16          1.1820    -1.3510     2.0460 c3         1 731       0.096000
      4 C17          3.7160     0.0000     2.5140 c3         1 731       0.146800
      5 C18          1.6290    -0.8420     3.4200 c3         1 731       0.146800
      6 C19          3.5340    -0.5910     4.7940 ca         1 731       0.104600
      7 C20          4.5740     3.7940    -3.7800 c3         1 731      -0.123400
      8 C22          4.8920    -0.5840     5.0850 ca         1 731      -0.167500
      9 C23          2.6130    -0.2910     5.7900 ca         1 731      -0.167500
     10 C24          3.0500     0.0130     7.0640 ca         1 731      -0.104500
     11 C25          5.3230    -0.2800     6.3600 ca         1 731      -0.104500
     12 C26          4.4030     0.0190     7.3500 ca         1 731      -0.155000
     13 C1           1.9540     0.6420    -1.1070 cc         1 731       0.267800
     14 C12          1.9250     3.7740    -6.2740 cc         1 731       0.450700
     15 C2           2.3930     2.6050    -4.1590 cc         1 731      -0.101400
     16 C3           2.4520     1.7860    -2.9340 cc         1 731      -0.056300
     17 C4           1.3940     1.4090    -2.1520 cd         1 731      -0.233300
     18 C7           3.3190     3.5060    -4.5610 cd         1 731       0.386600
     19 C8           1.2160     0.0000     0.0000 c          1 731       0.609600
     20 N11          1.8900    -0.5860     1.0090 n          1 731      -0.481800
     21 N13          3.0950    -0.8920     3.5030 nh         1 731      -0.598000
     22 N5           3.5740     1.2610    -2.3590 na         1 731       0.040400
     23 N6           3.0290     4.1060    -5.6930 nd         1 731      -0.683000
     24 N9           3.2560     0.5990    -1.3060 nd         1 731      -0.516800
     25 S10          1.1020     2.5890    -5.3570 ss         1 731      -0.151300
     26 H1           3.8030    -1.4440     0.9210 h1         1 731       0.074700
     27 H2           3.7110     0.2410     0.3750 h1         1 731       0.074700
     28 H3           0.1130    -1.2090     1.9360 h1         1 731       0.074700
     29 H4           1.4260    -2.4030     1.9510 h1         1 731       0.074700
     30 H5           4.7920    -0.0210     2.6360 h1         1 731       0.050700
     31 H6           3.3500     1.0090     2.6590 h1         1 731       0.050700
     32 H7           1.2950     0.1800     3.5520 h1         1 731       0.050700
     33 H8           1.2030    -1.4700     4.1930 h1         1 731       0.050700
     34 H9           5.2780     2.9810    -3.9140 hc         1 731       0.052700
     35 H10          4.3310     3.8900    -2.7280 hc         1 731       0.052700
     36 H11          5.0160     4.7170    -4.1340 hc         1 731       0.052700
     37 H12          0.5370     3.8260    -7.8880 hc         1 731       0.060033
     38 H13          1.1960     5.4040    -7.4350 hc         1 731       0.060033
     39 H14          2.1950     4.2530    -8.3320 hc         1 731       0.060033
     40 H15          5.6130    -0.8170     4.3100 ha         1 731       0.135500
     41 H16          1.5520    -0.2960     5.5670 ha         1 731       0.135500
     42 H17          2.3330     0.2470     7.8410 ha         1 731       0.129000
     43 H18          6.3820    -0.2740     6.5870 ha         1 731       0.129000
     44 H19          4.7430     0.2570     8.3500 ha         1 731       0.128000
     45 H20          0.3510     1.4240    -2.4420 ha         1 731       0.183000
     46 H21          4.5040     1.3710    -2.7110 hn         1 731       0.337700
     47 C21          1.4280     4.3550    -7.5740 c3         1 731      -0.113400
@<TRIPOS>BOND
     1    47    14 1   
     2    14    23 2   
     3    14    25 1   
     4    23    18 1   
     5    25    15 1   
     6    18     7 1   
     7    18    15 2   
     8    15    16 1   
     9    16    17 2   
    10    16    22 1   
    11    17    13 1   
    12    22    24 1   
    13    13    24 2   
    14    13    19 1   
    15     3    20 1   
    16     3     5 1   
    17    19    20 1   
    18    19     1 2   
    19    20     2 1   
    20     5    21 1   
    21     2     4 1   
    22    21     6 1   
    23    21     4 1   
    24     9     6 ar  
    25     9    10 ar  
    26     6     8 ar  
    27    10    12 ar  
    28     8    11 ar  
    29    12    11 ar  
    30     2    26 1   
    31     2    27 1   
    32     3    28 1   
    33     3    29 1   
    34     4    30 1   
    35     4    31 1   
    36     5    32 1   
    37     5    33 1   
    38     7    34 1   
    39     7    35 1   
    40     7    36 1   
    41    47    37 1   
    42    47    38 1   
    43    47    39 1   
    44     8    40 1   
    45     9    41 1   
    46    10    42 1   
    47    11    43 1   
    48    12    44 1   
    49    17    45 1   
    50    22    46 1   
@<TRIPOS>SUBSTRUCTURE
     1 731         1 TEMP              0 ****  ****    0 ROOT
