@<TRIPOS>MOLECULE
731
   47    50     1     0     0
SMALL
bcc


@<TRIPOS>ATOM
      1 O14          0.0000     0.0000     0.0000 o          1 731      -0.653100
      2 C15          3.3530    -0.4760     1.1040 c3         1 731       0.020000
      3 C16          1.1820    -1.3510     2.0460 c3         1 731       0.020000
      4 C17          3.7160     0.0000     2.5140 c3         1 731       0.120800
      5 C18          1.6290    -0.8420     3.4200 c3         1 731       0.120800
      6 C19          3.5340    -0.5910     4.7940 ca         1 731       0.023600
      7 C20          4.5740     3.7940    -3.7800 c3         1 731      -0.022400
      8 C22          4.8920    -0.5840     5.0850 ca         1 731      -0.149000
      9 C23          2.6130    -0.2910     5.7900 ca         1 731      -0.149000
     10 C24          3.0500     0.0130     7.0640 ca         1 731      -0.073500
     11 C25          5.3230    -0.2800     6.3600 ca         1 731      -0.073500
     12 C26          4.4030     0.0190     7.3500 ca         1 731      -0.129000
     13 C1           1.9540     0.6420    -1.1070 cc         1 731       0.256800
     14 C12          1.9250     3.7740    -6.2740 cc         1 731       0.438700
     15 C2           2.3930     2.6050    -4.1590 cd         1 731      -0.029400
     16 C3           2.4520     1.7860    -2.9340 cd         1 731      -0.244300
     17 C4           1.3940     1.4090    -2.1520 cc         1 731      -0.188300
     18 C7           3.3190     3.5060    -4.5610 cc         1 731       0.323600
     19 C8           1.2160     0.0000     0.0000 c          1 731       0.538600
     20 N11          1.8900    -0.5860     1.0090 n          1 731      -0.133800
     21 N13          3.0950    -0.8920     3.5030 nh         1 731      -0.361000
     22 N5           3.5740     1.2610    -2.3590 na         1 731       0.562400
     23 N6           3.0290     4.1060    -5.6930 nd         1 731      -0.555000
     24 N9           3.2560     0.5990    -1.3060 nd         1 731      -0.644800
     25 S10          1.1020     2.5890    -5.3570 ss         1 731      -0.265300
     26 H1           3.8030    -1.4440     0.9210 h1         1 731       0.048950
     27 H2           3.7110     0.2410     0.3750 h1         1 731       0.048950
     28 H3           0.1130    -1.2090     1.9360 h1         1 731       0.048950
     29 H4           1.4260    -2.4030     1.9510 h1         1 731       0.048950
     30 H5           4.7920    -0.0210     2.6360 h1         1 731       0.025450
     31 H6           3.3500     1.0090     2.6590 h1         1 731       0.025450
     32 H7           1.2950     0.1800     3.5520 h1         1 731       0.025450
     33 H8           1.2030    -1.4700     4.1930 h1         1 731       0.025450
     34 H9           5.2780     2.9810    -3.9140 hc         1 731       0.014033
     35 H10          4.3310     3.8900    -2.7280 hc         1 731       0.014033
     36 H11          5.0160     4.7170    -4.1340 hc         1 731       0.014033
     37 H12          0.5370     3.8260    -7.8880 hc         1 731       0.020033
     38 H13          1.1960     5.4040    -7.4350 hc         1 731       0.020033
     39 H14          2.1950     4.2530    -8.3320 hc         1 731       0.020033
     40 H15          5.6130    -0.8170     4.3100 ha         1 731       0.118000
     41 H16          1.5520    -0.2960     5.5670 ha         1 731       0.118000
     42 H17          2.3330     0.2470     7.8410 ha         1 731       0.101000
     43 H18          6.3820    -0.2740     6.5870 ha         1 731       0.101000
     44 H19          4.7430     0.2570     8.3500 ha         1 731       0.103000
     45 H20          0.3510     1.4240    -2.4420 ha         1 731       0.158000
     46 H21          4.5040     1.3710    -2.7110 hn         1 731       0.146700
     47 C21          1.4280     4.3550    -7.5740 c3         1 731       0.000600
@<TRIPOS>BOND
     1     1    19 2   
     2     2     4 1   
     3     2    20 1   
     4     2    26 1   
     5     2    27 1   
     6     3     5 1   
     7     3    20 1   
     8     3    28 1   
     9     3    29 1   
    10     4    21 1   
    11     4    30 1   
    12     4    31 1   
    13     5    21 1   
    14     5    32 1   
    15     5    33 1   
    16     6     8 ar  
    17     6     9 ar  
    18     6    21 1   
    19     7    18 1   
    20     7    34 1   
    21     7    35 1   
    22     7    36 1   
    23     8    11 ar  
    24     8    40 1   
    25     9    10 ar  
    26     9    41 1   
    27    10    12 ar  
    28    10    42 1   
    29    11    12 ar  
    30    11    43 1   
    31    12    44 1   
    32    13    17 1   
    33    13    19 1   
    34    13    24 2   
    35    14    23 2   
    36    14    25 1   
    37    14    47 1   
    38    15    16 1   
    39    15    18 2   
    40    15    25 1   
    41    16    17 2   
    42    16    22 1   
    43    17    45 1   
    44    18    23 1   
    45    19    20 1   
    46    22    24 1   
    47    22    46 1   
    48    37    47 1   
    49    38    47 1   
    50    39    47 1   
@<TRIPOS>SUBSTRUCTURE
     1 731         1 TEMP              0 ****  ****    0 ROOT
