@<TRIPOS>MOLECULE
732
   51    53     1     0     0
SMALL
bcc


@<TRIPOS>ATOM
      1 C1          0.2360   -0.4270   -0.1430 ca        1 732     -0.039000
      2 C2          1.5920   -0.0450   -0.0700 ca        1 732     -0.251500
      3 C3          2.2280   -0.0050    1.1910 ca        1 732     -0.039000
      4 C4          1.5260   -0.3370    2.3410 ca        1 732     -0.138000
      5 C5          0.1760   -0.7150    2.2560 ca        1 732      0.096400
      6 C6         -0.4660   -0.7580    1.0060 ca        1 732     -0.138000
      7 C7          2.3340    0.3020   -1.2370 cc        1 732      0.544200
      8 CL8        -0.6750   -1.1170    3.6490 cl        1 732      0.009600
      9 C9          3.6790    0.7270   -1.4130 cd        1 732     -0.301300
     10 C10         3.8820    0.9370   -2.7840 cd        1 732      0.004700
     11 C11         2.6550    0.6370   -3.4400 cc        1 732      0.032200
     12 O12         1.6930    0.2410   -2.4700 os        1 732     -0.390800
     13 C13         2.3110    0.6840   -4.7910 c         1 732      0.503600
     14 O14         2.9880    0.9910   -5.7840 o         1 732     -0.593100
     15 N15         0.8620    0.3060   -5.1400 n4        1 732     -0.672800
     16 C16         0.6950    0.0050   -6.5960 c3        1 732      0.071500
     17 C17        -0.7110   -0.5320   -6.9490 c3        1 732     -0.090700
     18 C18         0.9690    1.2760   -7.4140 c         1 732      0.526100
     19 O19         0.4200    2.3510   -7.2360 o         1 732     -0.371100
     20 N20         2.0050    1.1670   -8.4920 n4        1 732     -0.653800
     21 C21         1.9780    2.3030   -9.4500 c3        1 732      0.080100
     22 C22        -0.8580   -1.9750   -6.4820 c3        1 732     -0.089400
     23 C23        -2.1900   -2.5340   -6.9500 c3        1 732     -0.079900
     24 C24        -3.3500   -1.6790   -6.4840 c3        1 732     -0.091400
     25 C25        -3.1760   -0.2300   -6.8890 c3        1 732     -0.079900
     26 C26        -1.8470    0.3200   -6.4030 c3        1 732     -0.089400
     27 H1         -0.2680   -0.4590   -1.1210 ha        1 732      0.146500
     28 H3          3.2880    0.2910    1.2670 ha        1 732      0.146500
     29 H4          2.0300   -0.3030    3.3230 ha        1 732      0.181000
     30 H6         -1.5260   -1.0540    0.9420 ha        1 732      0.181000
     31 H9          4.4130    0.8630   -0.6160 ha        1 732      0.213000
     32 H10         4.8000    1.2690   -3.2790 ha        1 732      0.207000
     33 HN15        0.5850   -0.5260   -4.5990 hn        1 732      0.481800
     34 H16         1.4570   -0.8000   -6.8420 hx        1 732      0.131700
     35 H17        -0.7720   -0.5230   -8.0770 hc        1 732      0.092700
     36 H21         2.8090    2.1640  -10.1950 hx        1 732      0.126700
     37 H21A        0.9870    2.3280   -9.9790 hx        1 732      0.126700
     38 H22        -0.8130   -2.0260   -5.3620 hc        1 732      0.049200
     39 H22A       -0.0250   -2.6040   -6.8920 hc        1 732      0.049200
     40 H23        -2.1950   -2.6020   -8.0700 hc        1 732      0.072700
     41 H23A       -2.3070   -3.5770   -6.5510 hc        1 732      0.072700
     42 H24        -4.3030   -2.0760   -6.9250 hc        1 732      0.070700
     43 H24A       -3.4470   -1.7500   -5.3680 hc        1 732      0.070700
     44 H25        -3.2390   -0.1360   -8.0050 hc        1 732      0.072700
     45 H25A       -4.0070    0.3870   -6.4540 hc        1 732      0.072700
     46 H26        -1.7310    1.3850   -6.7360 hc        1 732      0.049200
     47 H26A       -1.8470    0.3030   -5.2810 hc        1 732      0.049200
     48 H221        1.8750    0.2840   -9.0030 hn        1 732      0.483800
     49 H231        2.1230    3.2700   -8.8920 hx        1 732      0.126700
     50 H152        0.2410    1.0810   -4.8690 hn        1 732      0.481800
     51 H202        2.9290    1.1390   -8.0200 hn        1 732      0.483800
@<TRIPOS>BOND
     1    1    2 ar
     2    1    6 ar
     3    1   27 1
     4    2    3 ar
     5    2    7 1
     6    3    4 ar
     7    3   28 1
     8    4    5 ar
     9    4   29 1
    10    5    6 ar
    11    5    8 1
    12    6   30 1
    13    7    9 2
    14    7   12 1
    15    9   10 1
    16    9   31 1
    17   10   11 2
    18   10   32 1
    19   11   12 1
    20   11   13 1
    21   13   14 2
    22   13   15 1
    23   15   16 1
    24   15   33 1
    25   15   50 1
    26   16   17 1
    27   16   18 1
    28   16   34 1
    29   17   22 1
    30   17   26 1
    31   17   35 1
    32   18   19 2
    33   18   20 1
    34   20   21 1
    35   20   48 1
    36   20   51 1
    37   21   36 1
    38   21   37 1
    39   21   49 1
    40   22   23 1
    41   22   38 1
    42   22   39 1
    43   23   24 1
    44   23   40 1
    45   23   41 1
    46   24   25 1
    47   24   42 1
    48   24   43 1
    49   25   26 1
    50   25   44 1
    51   25   45 1
    52   26   46 1
    53   26   47 1
@<TRIPOS>SUBSTRUCTURE
     1 732         1 TEMP              0 ****  ****    0 ROOT
