@<TRIPOS>MOLECULE
molecule
   40    42     1     0     0
SMALL
bcc


@<TRIPOS>ATOM
      1 C01          0.0000     0.0000     0.0000 c3         1 733      -0.154400
      2 C02          1.5070     0.0000     0.0000 ca         1 733       0.544600
      3 C03          2.1810     0.0000     1.2120 ca         1 733      -0.357300
      4 C04          3.5680    -0.0010     1.2260 ca         1 733       0.268600
      5 N01          4.2720    -0.0020     2.4200 nu         1 733      -0.771600
      6 C05          3.5500    -0.0010     3.6950 c3         1 733       0.272100
      7 C06          4.5390    -0.0020     4.8320 ca         1 733      -0.119300
      8 C07          4.9980    -1.2010     5.3490 ca         1 733       0.045400
      9 Cl1          4.4330    -2.7040     4.6890 cl         1 733      -0.079400
     10 C08          5.9050    -1.2020     6.3930 ca         1 733      -0.109000
     11 C09          6.3560    -0.0050     6.9190 ca         1 733      -0.085000
     12 C10          5.8970     1.1930     6.4020 ca         1 733       0.028400
     13 Cl2          6.4630     2.6960     7.0630 cl         1 733      -0.054400
     14 C11          4.9940     1.1950     5.3530 ca         1 733       0.047400
     15 Cl3          4.4250     2.6990     4.7000 cl         1 733      -0.063400
     16 C12          4.2430    -0.0010    -0.0190 ca         1 733      -0.209300
     17 C13          5.6420    -0.0010    -0.0870 ca         1 733      -0.040000
     18 C14          6.2730     0.0000    -1.3110 ca         1 733       0.094900
     19 F            7.6220    -0.0010    -1.3670 f          1 733      -0.117900
     20 C15          5.5370     0.0000    -2.4900 ca         1 733      -0.098000
     21 C16          4.1490    -0.0000    -2.4590 ca         1 733      -0.261900
     22 C17          3.3780     0.0010    -3.7150 c          1 733       0.494700
     23 N02          4.0210     0.0010    -4.9000 nz         1 733      -0.680400
     24 O1           2.1630     0.0010    -3.6820 o          1 733      -0.373100
     25 C1           3.4790    -0.0010    -1.2100 ca         1 733       0.521600
     26 N1           2.1460    -0.0050    -1.1480 nb         1 733      -0.752000
     27 H1          -0.3610     0.1990    -1.0020 hc         1 733       0.069033
     28 H2          -0.3610    -0.9670     0.3290 hc         1 733       0.069033
     29 H3          -0.3610     0.7680     0.6730 hc         1 733       0.069033
     30 H4           1.6300    -0.1050     2.1390 ha         1 733       0.163000
     31 H5           5.2720    -0.0250     2.4110 hn         1 733       0.452800
     32 H6           2.9280     0.8840     3.7580 h1         1 733       0.075200
     33 H7           2.9270    -0.8850     3.7570 h1         1 733       0.075200
     34 H8           6.2640    -2.1400     6.7980 ha         1 733       0.166000
     35 H9           7.0660    -0.0060     7.7370 ha         1 733       0.169000
     36 H10          6.2280    -0.0020     0.8240 ha         1 733       0.163000
     37 H11          6.0520     0.0010    -3.4430 ha         1 733       0.121000
     38 H12          4.5990     0.8150    -4.9660 hn         1 733       0.472133
     39 H13          3.3510     0.0060    -5.6440 hn         1 733       0.472133
     40 H023         4.5920    -0.8190    -4.9710 hn         1 733       0.472133
@<TRIPOS>BOND
     1     1     2 1
     2    24    22 2
     3     2    26 ar
     4     2     3 ar
     5    22    23 1
     6    22    21 1
     7    26    25 ar
     8     3     4 ar
     9    25    21 ar
    10    25    16 ar
    11    21    20 ar
    12     4    16 ar
    13     4     5 1
    14    16    17 ar
    15    20    18 ar
    16     5     6 1
    17    17    18 ar
    18     6     7 1
    19    18    19 1
    20    15    14 1
    21     9     8 1
    22     7    14 ar
    23     7     8 ar
    24    14    12 ar
    25     8    10 ar
    26    10    11 ar
    27    12    11 ar
    28    12    13 1
    29     1    27 1
    30     1    28 1
    31     1    29 1
    32     3    30 1
    33     5    31 1
    34     6    32 1
    35     6    33 1
    36    10    34 1
    37    11    35 1
    38    17    36 1
    39    20    37 1
    40    23    38 1
    41    23    39 1
    42    40    23 1
@<TRIPOS>SUBSTRUCTURE
     1 733         1 TEMP              0 ****  ****    0 ROOT
