@<TRIPOS>MOLECULE
734
   39    42     1     0     0
SMALL
bcc


@<TRIPOS>ATOM
      1 CAA        -0.3760    1.4280    0.2240 ca        1 734     -0.074000
      2 CAB        -3.3470    1.3600    4.8270 ca        1 734      0.111800
      3 CAC        -2.5400    0.2380    4.9840 ca        1 734     -0.110300
      4 CAD        -2.2040   -0.2100    6.2780 ca        1 734     -0.063000
      5 CAE        -2.6830    0.4380    7.3970 ca        1 734     -0.007600
      6 CAF        -2.2710   -1.9480    3.8770 cc        1 734      0.204000
      7 CAG        -3.5240    1.5770    7.2790 ca        1 734     -0.102300
      8 CAH        -4.0490    2.2820    8.4030 ca        1 734     -0.077000
      9 CAI        -4.8540    3.3730    8.2070 ca        1 734     -0.239300
     10 CAJ        -5.1460    3.7750    6.8650 ca        1 734      0.418200
     11 CAK         0.7930    0.8290   -0.2450 ca        1 734     -0.280300
     12 CAL        -3.8700    2.0540    5.9770 ca        1 734      0.338600
     13 CAM        -1.9930   -0.4820    3.7680 c3        1 734      0.228500
     14 CAN         1.4340   -0.1040    0.5880 ca        1 734      0.423200
     15 CAO        -0.1570    0.1290    2.2630 ca        1 734      0.614200
     16 CAP        -0.8660    1.0900    1.4810 ca        1 734     -0.269300
     17 CAQ        -3.2580   -2.7480    3.3330 cd        1 734     -0.235300
     18 CAR        -2.9990   -4.0960    3.7890 cd        1 734     -0.263300
     19 CAS        -1.8690   -4.0370    4.5780 cc        1 734      0.247600
     20 NAT        -0.5850   -0.1490    3.5860 nh        1 734     -0.814900
     21 NAU         0.9900   -0.4670    1.7990 nb        1 734     -0.713000
     22 NAV        -4.6840    3.1560    5.7960 nb        1 734     -0.679000
     23 OAW        -1.4000   -2.7250    4.6530 os        1 734     -0.369800
     24 OAX        -3.6170    1.7590    3.5420 oh        1 734     -0.503100
     25 CLAY       -2.2480   -0.1480    8.9360 cl        1 734     -0.090400
     26 HAA        -0.9070    2.1690   -0.3910 ha        1 734      0.136000
     27 HAD        -1.5520   -1.0950    6.3720 ha        1 734      0.166000
     28 HAH        -3.7970    1.9360    9.4180 ha        1 734      0.155000
     29 HAI        -5.2770    3.9430    9.0450 ha        1 734      0.150000
     30 HAJ        -5.7940    4.6530    6.6820 h4        1 734      0.026100
     31 HAK         1.2080    1.0760   -1.2300 ha        1 734      0.142000
     32 HAM        -2.5840   -0.1290    2.8620 h1        1 734      0.102700
     33 HAN         2.3640   -0.6060    0.2630 h4        1 734      0.019100
     34 HAP        -1.7730    1.5720    1.8770 ha        1 734      0.159000
     35 HAQ        -4.0750   -2.4420    2.6870 ha        1 734      0.165000
     36 HAR        -3.5920   -4.9720    3.5420 ha        1 734      0.163000
     37 HAS        -1.2750   -4.7550    5.1360 h4        1 734      0.055100
     38 HNAT        0.0190   -0.7730    4.0880 hn        1 734      0.415800
     39 HOAX       -4.1920    2.5410    3.5620 ho        1 734      0.452000
@<TRIPOS>BOND
     1    1   11 ar
     2    1   16 ar
     3    1   26 1
     4    2    3 ar
     5    2   12 ar
     6    2   24 1
     7    3    4 ar
     8    3   13 1
     9    4    5 ar
    10    4   27 1
    11    5    7 ar
    12    5   25 1
    13    6   13 1
    14    6   17 2
    15    6   23 1
    16    7    8 ar
    17    7   12 ar
    18    8    9 ar
    19    8   28 1
    20    9   10 ar
    21    9   29 1
    22   10   22 ar
    23   10   30 1
    24   11   14 ar
    25   11   31 1
    26   12   22 ar
    27   13   20 1
    28   13   32 1
    29   14   21 ar
    30   14   33 1
    31   15   16 ar
    32   15   20 1
    33   15   21 ar
    34   16   34 1
    35   17   18 1
    36   17   35 1
    37   18   19 2
    38   18   36 1
    39   19   23 1
    40   19   37 1
    41   20   38 1
    42   24   39 1
@<TRIPOS>SUBSTRUCTURE
     1 734         1 TEMP              0 ****  ****    0 ROOT
