@<TRIPOS>MOLECULE
molecule
   53    55     1     0     0
SMALL
bcc


@<TRIPOS>ATOM
      1 C1           0.0000     0.0000     0.0000 c3         1 735      -0.114400
      2 C2           1.5130     0.0000     0.0000 cc         1 735       0.381600
      3 N3           2.1620     0.0000     1.3030 nc         1 735      -0.696000
      4 C4           3.5020     0.0930     1.3130 cd         1 735       0.475900
      5 S5           4.0660     0.2660    -0.3460 ss         1 735      -0.076300
      6 C6           2.4480     0.1810    -0.9600 cd         1 735      -0.196000
      7 C7           2.2350     0.3320    -2.4050 c          1 735       0.695700
      8 O8           3.2580     0.6130    -3.0330 o          1 735      -0.596100
      9 N9           1.0190     0.1710    -2.9590 ns         1 735      -0.554900
     10 C10          0.7370     0.5230    -4.3260 c3         1 735       0.165300
     11 C11          0.5730     2.0040    -4.5610 ca         1 735      -0.156300
     12 C12          0.0930     2.8980    -3.5650 ca         1 735      -0.118500
     13 C13         -0.0310     4.2700    -3.8580 ca         1 735      -0.141500
     14 C14          0.3160     4.7570    -5.1280 ca         1 735       0.153100
     15 O15          0.1940     6.1250    -5.3910 os         1 735      -0.341900
     16 C16          1.3910     6.8800    -5.5920 c3         1 735       0.018800
     17 C17          0.9490     8.3500    -5.5150 c3         1 735      -0.074100
     18 C18          2.5220     6.5850    -4.5900 c3         1 735      -0.074100
     19 C19          1.8970     6.6970    -7.0240 c          1 735       0.894600
     20 O20          3.0780     6.4340    -7.2620 o          1 735      -0.830300
     21 O21          1.0920     6.7930    -7.9500 o          1 735      -0.830300
     22 C22          0.7850     3.8710    -6.1230 ca         1 735      -0.141500
     23 C23          0.9110     2.4980    -5.8320 ca         1 735      -0.118500
     24 C24          4.3280     0.0090     2.5060 ca         1 735      -0.089500
     25 C25          5.7000    -0.3010     2.3920 ca         1 735      -0.106000
     26 C26          6.4990    -0.4060     3.5320 ca         1 735      -0.086000
     27 C27          5.9470    -0.2010     4.8140 ca         1 735      -0.220300
     28 C28          4.5830     0.1190     4.9270 ca         1 735      -0.086000
     29 C29          3.7720     0.2250     3.7830 ca         1 735      -0.106000
     30 C30          6.8260    -0.3450     6.0410 c3         1 735       0.746200
     31 F31          6.3600     0.3710     7.0310 f          1 735      -0.231300
     32 F32          8.0660    -0.0340     5.7520 f          1 735      -0.231300
     33 F33          6.7870    -1.6120     6.3730 f          1 735      -0.231300
     34 H34         -0.3610    -0.8200    -0.6090 hc         1 735       0.056367
     35 H35         -0.3610    -0.1180     1.0150 hc         1 735       0.056367
     36 H36         -0.3610     0.9370    -0.4050 hc         1 735       0.056367
     37 H37          2.7410     0.5420     3.8790 ha         1 735       0.153500
     38 H38          4.1520     0.2850     5.9070 ha         1 735       0.146000
     39 H39          7.5510    -0.6470     3.4320 ha         1 735       0.146000
     40 H40          6.1360    -0.4600     1.4130 ha         1 735       0.153500
     41 H41          0.2830    -0.2100    -2.3980 hn         1 735       0.310500
     42 H42         -0.1760     0.0240    -4.6280 h1         1 735       0.053700
     43 H43          1.5480     0.1640    -4.9490 h1         1 735       0.053700
     44 H44          1.2710     1.8190    -6.5950 ha         1 735       0.116000
     45 H45          1.0510     4.2460    -7.1040 ha         1 735       0.159500
     46 H46         -0.3970     4.9520    -3.1000 ha         1 735       0.159500
     47 H47         -0.1760     2.5260    -2.5840 ha         1 735       0.116000
     48 H48          0.7290     8.6070    -4.4850 hc         1 735       0.030533
     49 H49          0.0630     8.4930    -6.1200 hc         1 735       0.030533
     50 H50          1.7450     8.9860    -5.8830 hc         1 735       0.030533
     51 H51          3.2970     7.3350    -4.6890 hc         1 735       0.030533
     52 H52          2.1260     6.6050    -3.5820 hc         1 735       0.030533
     53 H53          2.9390     5.6060    -4.7950 hc         1 735       0.030533
@<TRIPOS>BOND
     1     1    36 1   
     2     1     2 1   
     3     1    34 1   
     4     1    35 1   
     5     2     6 2   
     6     2     3 1   
     7     3     4 2   
     8     4     5 1   
     9     4    24 1   
    10     5     6 1   
    11     6     7 1   
    12     7     8 2   
    13     7     9 1   
    14     9    10 1   
    15     9    41 1   
    16    10    11 1   
    17    10    43 1   
    18    10    42 1   
    19    11    23 ar  
    20    11    12 ar  
    21    12    13 ar  
    22    12    47 1   
    23    13    14 ar  
    24    13    46 1   
    25    14    15 1   
    26    14    22 ar  
    27    15    16 1   
    28    16    19 1   
    29    16    17 1   
    30    16    18 1   
    31    17    50 1   
    32    17    48 1   
    33    17    49 1   
    34    18    51 1   
    35    18    53 1   
    36    18    52 1   
    37    19    21 1   
    38    19    20 1   
    39    22    45 1   
    40    22    23 ar  
    41    23    44 1   
    42    24    25 ar  
    43    24    29 ar  
    44    25    40 1   
    45    25    26 ar  
    46    26    39 1   
    47    26    27 ar  
    48    27    28 ar  
    49    27    30 1   
    50    28    29 ar  
    51    28    38 1   
    52    29    37 1   
    53    30    32 1   
    54    30    31 1   
    55    30    33 1   
@<TRIPOS>SUBSTRUCTURE
     1 735         1 TEMP              0 ****  ****    0 ROOT
