@<TRIPOS>MOLECULE
736
   61    65     1     0     0
SMALL
bcc


@<TRIPOS>ATOM
      1 C1           0.0000     0.0000     0.0000 ca         1 736       0.401200
      2 N2           1.3170     0.0000     0.0000 nb         1 736      -0.578000
      3 C3           2.0230     0.0000     1.1180 ca         1 736       0.391600
      4 C4           1.3780     0.0080     2.3510 ca         1 736      -0.140100
      5 C5          -0.0270     0.0040     2.3850 ca         1 736      -0.063000
      6 C6          -0.7140    -0.0010     1.1860 ca         1 736      -0.221300
      7 C9           3.5220    -0.0140     1.0270 c3         1 736      -0.030700
      8 C10          4.0770    -1.2780     1.6150 ca         1 736      -0.056300
      9 C11          3.9170    -1.5760     2.9640 ca         1 736      -0.047800
     10 C12          3.2200    -0.6630     3.8780 ce         1 736       0.098800
     11 C13          2.1200     0.0240     3.6110 cf         1 736      -0.129200
     12 C18          4.7590    -2.1570     0.7930 ca         1 736      -0.087000
     13 C19          5.2760    -3.3340     1.3010 ca         1 736      -0.093000
     14 C20          5.1150    -3.6420     2.6420 ca         1 736      -0.039600
     15 C21          4.4410    -2.7730     3.4720 ca         1 736      -0.089000
     16 C24          4.0850     1.1870     1.7890 c3         1 736      -0.082700
     17 C25          5.6120     1.1860     1.6870 c3         1 736      -0.049400
     18 C26          6.1730     2.3690     2.4800 c3         1 736       0.238800
     19 N27          5.5380     3.6040     2.0010 n3         1 736      -0.547500
     20 C28          4.0700     3.6810     1.9780 c3         1 736       0.238800
     21 C29          3.5320     2.4800     1.1840 c3         1 736      -0.049400
     22 Cl40         5.7610    -5.1230     3.2750 cl         1 736      -0.028400
     23 S1           6.4570     4.8890     1.5050 s6         1 736       0.963900
     24 N1           3.7670    -0.5040     5.1470 nh         1 736      -0.473400
     25 C2           3.0070    -0.8700     6.3530 c3         1 736       0.199300
     26 C7           5.1260     0.0320     5.3250 c3         1 736       0.199300
     27 C8           3.9040    -1.7360     7.2430 c3         1 736       0.116300
     28 C14          5.8890    -0.8850     6.2810 c3         1 736       0.116300
     29 N3           5.1470    -1.0150     7.5390 n7         1 736      -0.565200
     30 O1           7.6650     4.7110     2.2300 o          1 736      -0.583800
     31 C15          6.6870     4.5710    -0.2670 c3         1 736       0.010700
     32 O2           5.5970     5.9980     1.7300 o          1 736      -0.583800
     33 H1          -0.5330    -0.0040    -0.9430 h4         1 736      -0.020900
     34 H5          -0.5590     0.0030     3.3290 ha         1 736       0.112000
     35 H6          -1.7970    -0.0010     1.1750 ha         1 736       0.114000
     36 H9           3.8140     0.0500    -0.0150 hc         1 736       0.050700
     37 H13          1.7340     0.6570     4.4000 ha         1 736       0.118000
     38 H18          4.8890    -1.9210    -0.2560 ha         1 736       0.114000
     39 H19          5.8060    -4.0170     0.6490 ha         1 736       0.115000
     40 H21          4.3150    -3.0150     4.5210 ha         1 736       0.124000
     41 H24          3.7960     1.1260     2.8310 hc         1 736       0.069700
     42 H251         6.0000     0.2610     2.0960 hc         1 736       0.021950
     43 H252         5.9040     1.2780     0.6470 hc         1 736       0.021950
     44 H261         7.2440     2.4310     2.3300 h1         1 736       0.026200
     45 H262         5.9550     2.2350     3.5330 h1         1 736       0.026200
     46 H281         3.7620     4.6010     1.4960 h1         1 736       0.026200
     47 H282         3.6880     3.6470     2.9910 h1         1 736       0.026200
     48 H291         2.4500     2.4680     1.2370 hc         1 736       0.021950
     49 H292         3.8480     2.5590     0.1510 hc         1 736       0.021950
     50 H21A         2.7200     0.0270     6.8890 h1         1 736       0.021450
     51 H22          2.1250    -1.4310     6.0710 h1         1 736       0.021450
     52 H71          5.0720     1.0290     5.7450 h1         1 736       0.021450
     53 H72          5.6330     0.0610     4.3680 h1         1 736       0.021450
     54 H81          4.1380    -2.6590     6.7280 h1         1 736       0.011950
     55 H82          3.3860    -1.9550     8.1690 h1         1 736       0.011950
     56 H141         6.0010    -1.8630     5.8280 h1         1 736       0.011950
     57 H142         6.8660    -0.4610     6.4820 h1         1 736       0.011950
     58 HN3          5.6900    -1.5410     8.1940 hn         1 736       0.253800
     59 H151         5.7200     4.4960    -0.7490 h1         1 736       0.061367
     60 H152         7.2300     3.6430    -0.4000 h1         1 736       0.061367
     61 H153         7.2490     5.3850    -0.7090 h1         1 736       0.061367
@<TRIPOS>BOND
     1     1     2 ar  
     2     1     6 ar  
     3     1    33 1   
     4     2     3 ar  
     5     3     4 ar  
     6     3     7 1   
     7     4     5 ar  
     8     4    11 1   
     9     5     6 ar  
    10     5    34 1   
    11     6    35 1   
    12     7     8 1   
    13     7    16 1   
    14     7    36 1   
    15     8     9 ar  
    16     8    12 ar  
    17     9    10 1   
    18     9    15 ar  
    19    10    11 2   
    20    10    24 1   
    21    11    37 1   
    22    12    13 ar  
    23    12    38 1   
    24    13    14 ar  
    25    13    39 1   
    26    14    15 ar  
    27    14    22 1   
    28    15    40 1   
    29    16    17 1   
    30    16    21 1   
    31    16    41 1   
    32    17    18 1   
    33    17    42 1   
    34    17    43 1   
    35    18    19 1   
    36    18    44 1   
    37    18    45 1   
    38    19    20 1   
    39    19    23 1   
    40    20    21 1   
    41    20    46 1   
    42    20    47 1   
    43    21    48 1   
    44    21    49 1   
    45    23    30 2   
    46    23    31 1   
    47    23    32 2   
    48    24    25 1   
    49    24    26 1   
    50    25    27 1   
    51    25    50 1   
    52    25    51 1   
    53    26    28 1   
    54    26    52 1   
    55    26    53 1   
    56    27    29 1   
    57    27    54 1   
    58    27    55 1   
    59    28    29 1   
    60    28    56 1   
    61    28    57 1   
    62    29    58 1   
    63    31    59 1   
    64    31    60 1   
    65    31    61 1   
@<TRIPOS>SUBSTRUCTURE
     1 736         1 TEMP              0 ****  ****    0 ROOT
