@<TRIPOS>MOLECULE
737
   79    83     1     0     0
SMALL
bcc


@<TRIPOS>ATOM
      1 CX           0.0000     0.0000     0.0000 c          1 737       0.523600
      2 CY           1.5310     0.0000     0.0000 c3         1 737      -0.056300
      3 CZ          -0.7100     0.7590    -1.0450 cc         1 737       0.307900
      4 OX          -0.6050    -0.6170     0.8810 o          1 737      -0.534100
      5 N05          1.9470     0.0000     1.3820 ns         1 737      -0.231900
      6 C06          2.0660    -1.2210    -0.7530 c3         1 737      -0.019400
      7 C07          3.5980    -1.2870    -0.7370 c3         1 737      -0.035400
      8 C08          4.1380    -2.5310    -1.4380 c3         1 737       0.158800
      9 N09          5.5820    -2.5380    -1.4420 nu         1 737      -0.505200
     10 C10          6.4060    -3.4780    -2.0250 c2         1 737       0.260100
     11 N11          5.8000    -4.5240    -2.6740 nz         1 737       0.188400
     12 N12          7.7070    -3.3710    -1.9580 n2         1 737      -0.608100
     13 C13          3.1030     0.6240     1.8310 c          1 737       0.582100
     14 O14          3.8970     1.2380     1.1230 o          1 737      -0.612100
     15 C15          3.2750     0.4590     3.3200 c3         1 737      -0.062000
     16 N16          3.9900     1.6160     3.8630 n          1 737       0.036700
     17 C17          3.3140     2.7590     4.3180 cc         1 737       0.277500
     18 N18          3.9060     3.8280     4.7590 nd         1 737      -0.422300
     19 C19          5.2720     3.8090     4.7830 cd         1 737      -0.082400
     20 C20          6.0430     2.7840     4.4080 cc         1 737      -0.090200
     21 C21          5.3900     1.5470     3.9050 c          1 737       0.632700
     22 N22          7.4040     2.8240     4.4650 nu         1 737      -0.324000
     23 C23          1.8390     2.7600     4.3050 ca         1 737      -0.136900
     24 C24          1.1400     2.3060     5.4180 ca         1 737      -0.085000
     25 C25         -0.2550     2.3050     5.4040 ca         1 737      -0.094000
     26 C26         -0.9420     2.7600     4.2790 ca         1 737      -0.088000
     27 C27         -0.2340     3.2140     3.1660 ca         1 737      -0.092300
     28 C28          1.1610     3.2140     3.1790 ca         1 737      -0.086000
     29 C29         -0.9690     3.6970     1.9620 c3         1 737       0.057200
     30 O30          6.0690     0.5790     3.5720 o          1 737      -0.693500
     31 N31         -0.0660     1.4140    -1.9480 nd         1 737      -0.511000
     32 C32         -1.0070     2.0060    -2.7660 cd         1 737       0.328200
     33 C33         -2.3250     1.7680    -2.4390 cc         1 737      -0.104400
     34 S34         -2.4010     0.7610    -1.0520 ss         1 737      -0.145300
     35 C35          8.0840     3.9960     4.9400 c3         1 737       0.198100
     36 C36          9.5760     3.8470     4.8750 ca         1 737      -0.174600
     37 C37         10.2290     3.3160     5.9890 ca         1 737      -0.063000
     38 C38         11.6090     3.1600     5.9730 ca         1 737      -0.104000
     39 C39         12.3300     3.5360     4.8430 ca         1 737      -0.062000
     40 C40         11.6700     4.0710     3.7240 ca         1 737      -0.152300
     41 C41         12.3710     4.4580     2.5730 ca         1 737      -0.042000
     42 C42         11.6900     4.9830     1.4850 ca         1 737      -0.220300
     43 C43         10.3190     5.1020     1.5870 ca         1 737       0.418200
     44 N44          9.6060     4.7410     2.6770 nb         1 737      -0.585000
     45 C45         10.2690     4.2320     3.7330 ca         1 737       0.393600
     46 HY           1.8890     0.9020    -0.4810 h1         1 737       0.086700
     47 H05          1.3730    -0.4750     2.0510 hn         1 737       0.206500
     48 H061         1.7270    -1.1760    -1.7810 hc         1 737       0.024200
     49 H062         1.6720    -2.1180    -0.2920 hc         1 737       0.024200
     50 H071         3.9910    -0.4080    -1.2340 hc         1 737       0.045200
     51 H072         3.9380    -1.2900     0.2910 hc         1 737       0.045200
     52 H081         3.7790    -3.4140    -0.9220 h1         1 737       0.009200
     53 H082         3.7800    -2.5470    -2.4610 h1         1 737       0.009200
     54 H09          6.0330    -1.7790    -0.9700 hn         1 737       0.338800
     55 H111         5.2230    -5.0270    -2.0290 hn         1 737       0.223800
     56 H112         6.4990    -5.1360    -3.0450 hn         1 737       0.223800
     57 H12          8.1230    -2.5980    -1.4780 hn         1 737       0.382400
     58 H151         2.3010     0.3850     3.7890 h1         1 737       0.060200
     59 H152         3.8420    -0.4420     3.5200 h1         1 737       0.060200
     60 H19          5.7730     4.6970     5.1470 h4         1 737       0.134000
     61 H22          7.9350     2.0270     4.1720 hn         1 737       0.303800
     62 H24          1.6760     1.9530     6.2910 ha         1 737       0.111000
     63 H25         -0.8050     1.9520     6.2680 ha         1 737       0.109000
     64 H26         -2.0250     2.7590     4.2680 ha         1 737       0.110000
     65 H28          1.7130     3.5670     2.3160 ha         1 737       0.118000
     66 H291        -1.5590     4.5670     2.2240 hc         1 737       0.010367
     67 H292        -0.2600     3.9620     1.1870 hc         1 737       0.010367
     68 H293        -1.6230     2.9130     1.5990 hc         1 737       0.010367
     69 H32         -0.7280     2.6210    -3.6130 h4         1 737       0.008100
     70 H33         -3.1820     2.1570    -2.9750 h4         1 737       0.167000
     71 H351         7.7880     4.8450     4.3350 h1         1 737       0.031700
     72 H352         7.7930     4.1790     5.9680 h1         1 737       0.031700
     73 H37          9.6600     3.0260     6.8640 ha         1 737       0.112000
     74 H38         12.1210     2.7490     6.8340 ha         1 737       0.112000
     75 H39         13.4070     3.4160     4.8270 ha         1 737       0.109000
     76 H41         13.4480     4.3470     2.5340 ha         1 737       0.109000
     77 H42         12.2150     5.2870     0.5880 ha         1 737       0.121000
     78 H43          9.7800     5.5110     0.7410 h4         1 737      -0.024900
     79 H113         5.2330    -4.1710    -3.4190 hn         1 737       0.223800
@<TRIPOS>BOND
     1     1     2 1   
     2     1     3 1   
     3     1     4 2   
     4     2     5 1   
     5     2     6 1   
     6     2    46 1   
     7     3    31 2   
     8     3    34 1   
     9     5    13 1   
    10     5    47 1   
    11     6     7 1   
    12     6    48 1   
    13     6    49 1   
    14     7     8 1   
    15     7    50 1   
    16     7    51 1   
    17     8     9 1   
    18     8    52 1   
    19     8    53 1   
    20     9    10 1   
    21     9    54 1   
    22    10    11 1   
    23    10    12 2   
    24    11    55 1   
    25    11    56 1   
    26    11    79 1   
    27    12    57 1   
    28    13    14 2   
    29    13    15 1   
    30    15    16 1   
    31    15    58 1   
    32    15    59 1   
    33    16    17 1   
    34    16    21 1   
    35    17    18 2   
    36    17    23 1   
    37    18    19 1   
    38    19    20 2   
    39    19    60 1   
    40    20    21 1   
    41    20    22 1   
    42    21    30 2   
    43    22    35 1   
    44    22    61 1   
    45    23    24 ar  
    46    23    28 ar  
    47    24    25 ar  
    48    24    62 1   
    49    25    26 ar  
    50    25    63 1   
    51    26    27 ar  
    52    26    64 1   
    53    27    28 ar  
    54    27    29 1   
    55    28    65 1   
    56    29    66 1   
    57    29    67 1   
    58    29    68 1   
    59    31    32 1   
    60    32    33 2   
    61    32    69 1   
    62    33    34 1   
    63    33    70 1   
    64    35    36 1   
    65    35    71 1   
    66    35    72 1   
    67    36    37 ar  
    68    36    45 ar  
    69    37    38 ar  
    70    37    73 1   
    71    38    39 ar  
    72    38    74 1   
    73    39    40 ar  
    74    39    75 1   
    75    40    41 ar  
    76    40    45 ar  
    77    41    42 ar  
    78    41    76 1   
    79    42    43 ar  
    80    42    77 1   
    81    43    44 ar  
    82    43    78 1   
    83    44    45 ar  
@<TRIPOS>SUBSTRUCTURE
     1 737         1 TEMP              0 ****  ****    0 ROOT
