@<TRIPOS>MOLECULE
738
   34    36     1     0     0
SMALL
bcc


@<TRIPOS>ATOM
      1 F19          0.0000     0.0000     0.0000 f          1 738      -0.115900
      2 C16          1.3400     0.0000     0.0000 ca         1 738       0.126900
      3 C18          2.0260     0.0000     1.2150 ca         1 738      -0.136000
      4 C21          3.4210    -0.0010     1.2290 ca         1 738      -0.045000
      5 C20          4.1300    -0.0010     0.0280 ca         1 738      -0.121000
      6 C17          3.4450    -0.0010    -1.1870 ca         1 738      -0.008000
      7 C14          2.0600    -0.0000    -1.1850 ca         1 738      -0.196600
      8 C13          1.3400    -0.0000    -2.4700 c          1 738       0.612700
      9 O15          1.8410     0.4990    -3.4760 o          1 738      -0.568100
     10 N10          0.0660    -0.6410    -2.4710 ns         1 738      -0.030100
     11 C5          -0.8100    -0.8280    -3.5070 cc         1 738       0.022500
     12 C2          -2.0450    -1.4360    -3.5600 cd         1 738      -0.052000
     13 C6          -2.6680    -2.0260    -2.4150 ch         1 738       0.263800
     14 N11         -3.1550    -2.5050    -1.4770 n1         1 738      -0.406800
     15 S7          -0.3300    -0.2100    -5.0300 ss         1 738      -0.143800
     16 C3          -1.7710    -0.7500    -5.7590 cc         1 738      -0.072400
     17 C8          -2.0470    -0.5590    -7.2180 c3         1 738       0.078900
     18 C12         -3.5310    -0.8130    -7.5240 c3         1 738      -0.018400
     19 C9          -4.0530    -2.0700    -6.8130 c3         1 738      -0.026400
     20 C4          -3.9390    -1.9440    -5.2850 c3         1 738       0.050900
     21 C1          -2.6080    -1.3980    -4.8710 cd         1 738      -0.048300
     22 H18          1.4760    -0.0160     2.1480 ha         1 738       0.126000
     23 H21          3.9530    -0.0010     2.1730 ha         1 738       0.111000
     24 H20          5.2130    -0.0020     0.0380 ha         1 738       0.114000
     25 H17          3.9960    -0.0010    -2.1190 ha         1 738       0.129000
     26 HN10        -0.2720    -1.0840    -1.6400 hn         1 738       0.184500
     27 H81         -1.3060    -1.1260    -7.7680 hc         1 738       0.022200
     28 H82         -1.9050     0.4910    -7.4430 hc         1 738       0.022200
     29 H121        -4.0930     0.0830    -7.2880 hc         1 738       0.015200
     30 H122        -3.6360    -1.0280    -8.5810 hc         1 738       0.015200
     31 H91         -3.5200    -2.9200    -7.2200 hc         1 738       0.019700
     32 H92         -5.1260    -2.1070    -6.9610 hc         1 738       0.019700
     33 H41         -3.9460    -2.9540    -4.8920 hc         1 738       0.028200
     34 H42         -4.7850    -1.3510    -4.9610 hc         1 738       0.028200
@<TRIPOS>BOND
     1     1     2 1   
     2     2     3 ar  
     3     2     7 ar  
     4     3     4 ar  
     5     3    22 1   
     6     4     5 ar  
     7     4    23 1   
     8     5     6 ar  
     9     5    24 1   
    10     6     7 ar  
    11     6    25 1   
    12     7     8 1   
    13     8     9 2   
    14     8    10 1   
    15    10    11 1   
    16    10    26 1   
    17    11    12 2   
    18    11    15 1   
    19    12    13 1   
    20    12    21 1   
    21    13    14 3   
    22    15    16 1   
    23    16    17 1   
    24    16    21 2   
    25    17    18 1   
    26    17    27 1   
    27    17    28 1   
    28    18    19 1   
    29    18    29 1   
    30    18    30 1   
    31    19    20 1   
    32    19    31 1   
    33    19    32 1   
    34    20    21 1   
    35    20    33 1   
    36    20    34 1   
@<TRIPOS>SUBSTRUCTURE
     1 738         1 TEMP              0 ****  ****    0 ROOT
