@<TRIPOS>MOLECULE
739
   73    73     1     0     0
SMALL
bcc


@<TRIPOS>ATOM
      1 CBC          0.0000     0.0000     0.0000 c3         1 739       0.048700
      2 SCC         -0.6060    -1.4800     0.8560 sh         1 739      -0.398900
      3 CC           2.0400     1.2470    -0.7210 c3         1 739       0.108800
      4 NC           2.0190     0.0000     1.3860 nz         1 739       0.041400
      5 CAC          1.5290     0.0000     0.0000 c3         1 739      -0.040500
      6 NI           3.5080     1.2480    -0.7210 n7         1 739      -0.593200
      7 CAI          3.9320     2.4200    -1.4980 c3         1 739       0.116500
      8 CBI          4.7770     3.3390    -0.6140 c3         1 739      -0.080700
      9 CCI          3.9100     3.9020     0.5130 c3         1 739      -0.003100
     10 CDI          5.9390     2.5440    -0.0160 c3         1 739      -0.027400
     11 CEI          6.7850     3.4640     0.8680 c3         1 739       0.003900
     12 CI           4.7620     1.9630    -2.6990 c3         1 739       0.133400
     13 O'F          5.1730     3.1040    -3.4560 os         1 739      -0.346600
     14 CAF          5.9390     2.6150    -4.5570 c3         1 739       0.098100
     15 CBF          5.0110     2.3460    -5.7440 c3         1 739      -0.007100
     16 CCF          3.9810     1.3200    -5.3550 ca         1 739      -0.065300
     17 CDF          2.7790     1.7220    -4.8040 ca         1 739      -0.093500
     18 CEF          4.2340    -0.0240    -5.5540 ca         1 739      -0.093500
     19 CFF          1.8320     0.7800    -4.4450 ca         1 739      -0.116500
     20 CGF          3.2900    -0.9660    -5.1920 ca         1 739      -0.116500
     21 CHF          2.0880    -0.5640    -4.6400 ca         1 739      -0.125000
     22 CF           6.9710     3.6410    -4.9470 c          1 739       0.543100
     23 OF           7.0410     4.6890    -4.3420 o          1 739      -0.642100
     24 NM           7.8140     3.3960    -5.9690 ns         1 739      -0.112900
     25 CAM          8.8150     4.3940    -6.3490 c3         1 739      -0.107300
     26 CBM         10.0430     3.6900    -6.9290 c3         1 739       0.005600
     27 CCM         10.6330     2.7470    -5.8810 c3         1 739      -0.015600
     28 SDM         12.0890     1.9110    -6.5690 s6         1 739       0.794000
     29 ODM         11.6750     1.0580    -7.6260 o          1 739      -0.583300
     30 OEM         13.1080     2.8740    -6.8020 o          1 739      -0.583300
     31 CEM         12.5520     0.8960    -5.1390 c3         1 739      -0.004300
     32 CM           8.2330     5.3230    -7.3830 c          1 739       0.971600
     33 OXT          7.2960     4.8770    -8.2340 o          1 739      -0.876300
     34 O            8.6110     6.4690    -7.4470 o          1 739      -0.876300
     35 HBC1        -0.3610    -0.0010    -1.0210 h1         1 739       0.070200
     36 HBC2        -0.3610     0.8850     0.5100 h1         1 739       0.070200
     37 HCC         -1.8710    -1.7000     0.5180 hs         1 739       0.255800
     38 HCC1         1.6790     1.2470    -1.7430 h1         1 739       0.053700
     39 HCC2         1.6790     2.1320    -0.2110 h1         1 739       0.053700
     40 HNC1         1.9980     0.9330     1.7470 hn         1 739       0.236133
     41 HNC2         2.9580    -0.3460     1.4080 hn         1 739       0.236133
     42 HAC          1.8900    -0.8850    -0.5100 hx         1 739       0.116700
     43 HNI          3.8420     1.3320     0.2180 hn         1 739       0.247800
     44 HAI          3.0580     2.9570    -1.8470 h1         1 739       0.043700
     45 HBI          5.1670     4.1550    -1.2110 hc         1 739       0.096700
     46 HCI1         2.8950     4.0350     0.1570 hc         1 739      -0.000633
     47 HCI2         4.3080     4.8580     0.8320 hc         1 739      -0.000633
     48 HCI3         3.9120     3.2130     1.3490 hc         1 739      -0.000633
     49 HDI1         6.5530     2.1460    -0.8140 hc         1 739       0.012200
     50 HDI2         5.5480     1.7290     0.5810 hc         1 739       0.012200
     51 HEI1         6.3230     3.5520     1.8440 hc         1 739       0.008367
     52 HEI2         6.8510     4.4440     0.4100 hc         1 739       0.008367
     53 HEI3         7.7790     3.0480     0.9750 hc         1 739       0.008367
     54 HI1          5.6360     1.4260    -2.3510 h1         1 739       0.026200
     55 HI2          4.1630     1.3110    -3.3250 h1         1 739       0.026200
     56 HAF          6.4350     1.6950    -4.2710 h1         1 739       0.006700
     57 HBF1         4.5150     3.2660    -6.0300 hc         1 739       0.058200
     58 HBF2         5.5920     1.9750    -6.5800 hc         1 739       0.058200
     59 HDF          2.5780     2.7750    -4.6510 ha         1 739       0.119500
     60 HEF          5.1760    -0.3400    -5.9860 ha         1 739       0.119500
     61 HFF          0.8910     1.0960    -4.0120 ha         1 739       0.095000
     62 HGF          3.4890    -2.0190    -5.3460 ha         1 739       0.095000
     63 HHF          1.3480    -1.3030    -4.3580 ha         1 739       0.091000
     64 HNM          7.7520     2.5330    -6.4720 hn         1 739       0.159500
     65 HAM          9.1060     4.9640    -5.4750 h1         1 739       0.056700
     66 HBM1        10.7850     4.4280    -7.2090 hc         1 739       0.047200
     67 HBM2         9.7530     3.1200    -7.8040 hc         1 739       0.047200
     68 HCM1         9.8920     2.0080    -5.6010 h1         1 739       0.054700
     69 HCM2        10.9240     3.3160    -5.0060 h1         1 739       0.054700
     70 HEM1        11.7350     0.2310    -4.8880 h1         1 739       0.054033
     71 HEM2        12.7670     1.5400    -4.2940 h1         1 739       0.054033
     72 HEM3        13.4320     0.3120    -5.3800 h1         1 739       0.054033
     73 HC3          1.4310    -0.5840     1.9470 hn         1 739       0.236133
@<TRIPOS>BOND
     1     1     2 1   
     2     1     5 1   
     3     1    35 1   
     4     1    36 1   
     5     2    37 1   
     6     3     5 1   
     7     3     6 1   
     8     3    38 1   
     9     3    39 1   
    10     4     5 1   
    11     4    40 1   
    12     4    41 1   
    13     4    73 1   
    14     5    42 1   
    15     6     7 1   
    16     6    43 1   
    17     7     8 1   
    18     7    12 1   
    19     7    44 1   
    20     8     9 1   
    21     8    10 1   
    22     8    45 1   
    23     9    46 1   
    24     9    47 1   
    25     9    48 1   
    26    10    11 1   
    27    10    49 1   
    28    10    50 1   
    29    11    51 1   
    30    11    52 1   
    31    11    53 1   
    32    12    13 1   
    33    12    54 1   
    34    12    55 1   
    35    13    14 1   
    36    14    15 1   
    37    14    22 1   
    38    14    56 1   
    39    15    16 1   
    40    15    57 1   
    41    15    58 1   
    42    16    17 ar  
    43    16    18 ar  
    44    17    19 ar  
    45    17    59 1   
    46    18    20 ar  
    47    18    60 1   
    48    19    21 ar  
    49    19    61 1   
    50    20    21 ar  
    51    20    62 1   
    52    21    63 1   
    53    22    23 2   
    54    22    24 1   
    55    24    25 1   
    56    24    64 1   
    57    25    26 1   
    58    25    32 1   
    59    25    65 1   
    60    26    27 1   
    61    26    66 1   
    62    26    67 1   
    63    27    28 1   
    64    27    68 1   
    65    27    69 1   
    66    28    29 2   
    67    28    30 2   
    68    28    31 1   
    69    31    70 1   
    70    31    71 1   
    71    31    72 1   
    72    32    33 1   
    73    32    34 1   
@<TRIPOS>SUBSTRUCTURE
     1 739         1 TEMP              0 ****  ****    0 ROOT
