@<TRIPOS>MOLECULE
molecule
   54    56     1     0     0
SMALL
bcc


@<TRIPOS>ATOM
      1 C2           0.0000     0.0000     0.0000 ca         1 73A       0.548800
      2 N1           1.4230    -0.0000     2.3120 nb         1 73A      -0.833000
      3 N2           1.3330     0.0000     0.0000 nb         1 73A      -0.799000
      4 C3          -0.6690     0.0060     1.2400 ca         1 73A      -0.407400
      5 C8          -5.2810     0.0210     3.7620 ca         1 73A       0.013400
      6 C7          -5.0910    -1.0800     2.9430 ca         1 73A      -0.125500
      7 C1           2.0090     0.0000     1.1290 ca         1 73A       0.753900
      8 C17         -8.3880     1.5500    -3.2390 c3         1 73A      -0.094600
      9 C4          -2.1000     0.0040     0.9460 cc         1 73A      -0.006400
     10 N3          -3.7220     3.0710     0.4280 n1         1 73A      -0.352800
     11 C5          -3.2070     0.0110     1.9260 ca         1 73A      -0.046800
     12 C6          -4.0590    -1.0910     2.0270 ca         1 73A      -0.106000
     13 C9          -4.4380     1.1160     3.6670 ca         1 73A      -0.125500
     14 N4          -6.7680     1.3990    -1.1260 ns         1 73A      -0.471900
     15 C11         -2.2120    -0.0020    -0.4450 cd         1 73A      -0.120100
     16 C14         -3.9880     2.1590    -0.1960 cg         1 73A       0.186500
     17 C12         -3.4140    -0.0060    -1.1690 cf         1 73A      -0.022000
     18 O           -5.6980     0.2070    -2.8980 o          1 73A      -0.694100
     19 C15         -5.6420     0.9560    -1.6540 c          1 73A       0.626300
     20 C16         -8.1260     1.0860    -1.5870 c3         1 73A       0.012700
     21 C18         -8.2610    -0.5260    -1.5720 c3         1 73A      -0.094600
     22 N5          -0.9410    -0.0000    -0.9910 na         1 73A      -0.154100
     23 C19         -0.6460    -0.0000    -2.4270 c3         1 73A      -0.042700
     24 C20         -0.5430    -1.4420    -2.9270 c3         1 73A       0.051400
     25 C21         -0.1390    -2.7470    -4.8960 c3         1 73A       0.116700
     26 C            0.0970     0.0120     2.4200 ca         1 73A       0.816200
     27 N           -0.5110     0.0130     3.6590 nv         1 73A      -1.003500
     28 C10         -3.4040     1.1170     2.7550 ca         1 73A      -0.106000
     29 H1          -5.9620    -1.7170     2.8490 ha         1 73A       0.151000
     30 H2           3.0820    -0.0670     1.2590 h5         1 73A       0.069100
     31 H3          -8.1580     2.6080    -3.2090 hc         1 73A       0.055867
     32 H4          -9.4350     1.8270    -3.2620 hc         1 73A       0.055867
     33 H5          -8.0450     0.6880    -3.7990 hc         1 73A       0.055867
     34 H6          -4.1580    -2.0320     1.5000 ha         1 73A       0.159000
     35 H7          -4.8030     1.9310     4.2820 ha         1 73A       0.151000
     36 H8          -6.9220     2.1700    -0.5070 hn         1 73A       0.317500
     37 H9          -2.5860    -0.1110    -1.8590 ha         1 73A       0.219000
     38 H10         -8.9090     1.4790    -0.9500 h1         1 73A       0.067700
     39 H11         -7.8540    -0.8250    -2.5300 hc         1 73A       0.055867
     40 H12         -9.3200    -0.7390    -1.6560 hc         1 73A       0.055867
     41 H13         -7.6110    -0.8440    -0.7670 hc         1 73A       0.055867
     42 H14         -1.3580     0.4510    -3.1080 h1         1 73A       0.110200
     43 H15          0.4130     0.1100    -2.6280 h1         1 73A       0.110200
     44 H16         -0.2320    -1.7790    -1.9460 h1         1 73A       0.063700
     45 H17         -1.6090    -1.4840    -3.1140 h1         1 73A       0.063700
     46 H18         -1.1670    -2.9300    -5.1860 h1         1 73A       0.039033
     47 H19          0.7370    -3.0890    -5.4330 h1         1 73A       0.039033
     48 H20         -0.1650    -3.4910    -4.1090 h1         1 73A       0.039033
     49 H21         -0.3850    -0.3760     4.5730 hn         1 73A       0.430800
     50 H22         -1.4550     0.3400     3.7240 hn         1 73A       0.430800
     51 H23         -2.5960     1.7840     2.4780 ha         1 73A       0.159000
     52 Cl          -6.5840     0.0310     4.9080 cl         1 73A      -0.103400
     53 O1          -0.2560    -1.4410    -4.3270 os         1 73A      -0.394600
     54 C13         -4.3270     1.0260    -1.0020 ce         1 73A       0.022100
@<TRIPOS>BOND
     1    52     5 1   
     2     6     5 ar  
     3     6    12 ar  
     4     5    13 ar  
     5    12    11 ar  
     6    13    28 ar  
     7    27    26 1   
     8    11    28 ar  
     9    11     9 1   
    10    26     2 ar  
    11    26     4 ar  
    12     2     7 ar  
    13     9     4 1   
    14     9    15 2   
    15     4     1 ar  
    16    15    17 1   
    17    15    22 1   
    18     7     3 ar  
    19     1     3 ar  
    20     1    22 1   
    21    17    54 2   
    22    22    23 1   
    23    18    19 2   
    24    23    24 1   
    25    54    19 1   
    26    54    16 1   
    27    19    14 1   
    28    16    10 3   
    29    21    20 1   
    30    14    20 1   
    31    24    53 1   
    32    20     8 1   
    33    25    53 1   
    34     6    29 1   
    35     7    30 1   
    36     8    31 1   
    37     8    32 1   
    38     8    33 1   
    39    12    34 1   
    40    13    35 1   
    41    14    36 1   
    42    17    37 1   
    43    20    38 1   
    44    21    39 1   
    45    21    40 1   
    46    21    41 1   
    47    23    42 1   
    48    23    43 1   
    49    24    44 1   
    50    24    45 1   
    51    25    46 1   
    52    25    47 1   
    53    25    48 1   
    54    27    49 1   
    55    27    50 1   
    56    28    51 1   
@<TRIPOS>SUBSTRUCTURE
     1 73A         1 TEMP              0 ****  ****    0 ROOT
