@<TRIPOS>MOLECULE
73B
   53    56     1     0     0
SMALL
bcc


@<TRIPOS>ATOM
      1 C1           0.0000     0.0000     0.0000 c3         1 73B      -0.025100
      2 C2           1.5300     0.0000     0.0000 c3         1 73B       0.031700
      3 C3           2.0500     0.0000     1.4440 c3         1 73B      -0.054400
      4 C4           3.5760     0.0710     1.4190 c3         1 73B       0.202800
      5 N1           4.0920    -0.1270     2.7750 nu         1 73B      -0.419600
      6 C5           5.3410     0.3900     3.1310 ca         1 73B       0.065600
      7 C6           6.0920     1.0950     2.1990 ca         1 73B      -0.188000
      8 C7           7.3250     1.6090     2.5540 ca         1 73B      -0.042500
      9 C8           7.8100     1.4210     3.8360 ca         1 73B      -0.086600
     10 Cl1          9.3590     2.0690     4.2780 cl         1 73B      -0.033400
     11 C9           7.0640     0.7180     4.7660 ca         1 73B      -0.042500
     12 C10          5.8320     0.2020     4.4170 ca         1 73B      -0.188000
     13 C11          4.1390    -0.9910     0.5120 ca         1 73B      -0.148300
     14 C12          5.4550    -1.3780     0.6770 ca         1 73B      -0.109000
     15 C13          6.0070    -2.3570    -0.1490 cp         1 73B       0.009000
     16 C14          5.2270    -2.9470    -1.1430 ca         1 73B      -0.082000
     17 C15          3.9140    -2.5600    -1.3040 ca         1 73B      -0.206000
     18 C16          3.3660    -1.5840    -0.4760 ca         1 73B      -0.081400
     19 N2           2.0270    -1.2160    -0.6560 n          1 73B       0.013000
     20 C17          1.2070    -1.9670    -1.4180 c          1 73B       0.584100
     21 C18          1.5630    -3.3990    -1.7220 c3         1 73B      -0.101100
     22 O1           0.1830    -1.4890    -1.8610 o          1 73B      -0.653100
     23 C19          7.4180    -2.7690     0.0310 cp         1 73B      -0.092000
     24 C20          7.9680    -3.7500    -0.7970 ca         1 73B      -0.127500
     25 C21          9.2790    -4.1340    -0.6310 ca         1 73B      -0.077000
     26 C22         10.0610    -3.5410     0.3640 ca         1 73B      -0.084600
     27 C23          9.5090    -2.5590     1.1920 ca         1 73B      -0.077000
     28 C24          8.1980    -2.1730     1.0220 ca         1 73B      -0.127500
     29 C25         11.4670    -3.9520     0.5430 c          1 73B       0.969200
     30 O2          11.9460    -4.8060    -0.1760 o          1 73B      -0.881300
     31 O3          12.2190    -3.3800     1.5040 o          1 73B      -0.881300
     32 H1          -0.3610     0.2370    -0.9940 hc         1 73B       0.023700
     33 H2          -0.3610     0.7420     0.7020 hc         1 73B       0.023700
     34 H3          -0.3610    -0.9790     0.2920 hc         1 73B       0.023700
     35 H4           1.9010     0.8740    -0.5220 h1         1 73B       0.032700
     36 H5           1.6660     0.8750     1.9550 hc         1 73B       0.030200
     37 H6           1.7490    -0.9230     1.9250 hc         1 73B       0.030200
     38 H7           3.8800     1.0450     1.0560 h1         1 73B       0.044700
     39 H8           3.5430    -0.6190     3.4520 hn         1 73B       0.292800
     40 H9           5.7120     1.2420     1.1960 ha         1 73B       0.118500
     41 H10          7.9110     2.1590     1.8280 ha         1 73B       0.111000
     42 H11          7.4480     0.5730     5.7690 ha         1 73B       0.111000
     43 H12          5.2490    -0.3480     5.1450 ha         1 73B       0.118500
     44 H13          6.0610    -0.9200     1.4490 ha         1 73B       0.152000
     45 H14          5.6520    -3.7080    -1.7860 ha         1 73B       0.118000
     46 H15          3.3070    -3.0170    -2.0760 ha         1 73B       0.148000
     47 H16          2.0880    -3.4480    -2.6690 hc         1 73B       0.037700
     48 H17          0.6580    -3.9910    -1.7810 hc         1 73B       0.037700
     49 H18          2.1990    -3.7880    -0.9370 hc         1 73B       0.037700
     50 H19          7.3630    -4.2100    -1.5690 ha         1 73B       0.094500
     51 H20          9.7060    -4.8950    -1.2740 ha         1 73B       0.127500
     52 H21         10.1140    -2.0980     1.9630 ha         1 73B       0.127500
     53 H22          7.7700    -1.4120     1.6640 ha         1 73B       0.094500
@<TRIPOS>BOND
     1     1     2 1   
     2     1    32 1   
     3     1    33 1   
     4     1    34 1   
     5     2     3 1   
     6     2    19 1   
     7     2    35 1   
     8     3     4 1   
     9     3    36 1   
    10     3    37 1   
    11     4     5 1   
    12     4    13 1   
    13     4    38 1   
    14     5     6 1   
    15     5    39 1   
    16     6     7 ar  
    17     6    12 ar  
    18     7     8 ar  
    19     7    40 1   
    20     8     9 ar  
    21     8    41 1   
    22     9    10 1   
    23     9    11 ar  
    24    11    12 ar  
    25    11    42 1   
    26    12    43 1   
    27    13    14 ar  
    28    13    18 ar  
    29    14    15 ar  
    30    14    44 1   
    31    15    16 ar  
    32    15    23 1   
    33    16    17 ar  
    34    16    45 1   
    35    17    18 ar  
    36    17    46 1   
    37    18    19 1   
    38    19    20 1   
    39    20    21 1   
    40    20    22 2   
    41    21    47 1   
    42    21    48 1   
    43    21    49 1   
    44    23    24 ar  
    45    23    28 ar  
    46    24    25 ar  
    47    24    50 1   
    48    25    26 ar  
    49    25    51 1   
    50    26    27 ar  
    51    26    29 1   
    52    27    28 ar  
    53    27    52 1   
    54    28    53 1   
    55    29    30 1   
    56    29    31 1   
@<TRIPOS>SUBSTRUCTURE
     1 73B         1 TEMP              0 ****  ****    0 ROOT
