@<TRIPOS>MOLECULE
73D
   22    23     1     0     0
SMALL
bcc


@<TRIPOS>ATOM
      1 O11          0.0000     0.0000     0.0000 o          1 73D      -0.591500
      2 C8           1.2130     0.0000     0.0000 c          1 73D       0.524500
      3 C9           2.1000     0.0000     1.2100 c          1 73D       0.556700
      4 O12          1.7610     0.0000     2.3760 o          1 73D      -0.473100
      5 C1           3.4720    -0.0000     0.6720 ca         1 73D      -0.266600
      6 C2           4.7310    -0.0010     1.2720 ca         1 73D       0.024000
      7 C3           5.8640    -0.0010     0.4840 ca         1 73D      -0.150000
      8 C4           5.7510    -0.0020    -0.8960 ca         1 73D      -0.032000
      9 C5           4.5080    -0.0000    -1.5010 ca         1 73D      -0.141000
     10 C6           3.3540     0.0000    -0.7290 ca         1 73D      -0.039400
     11 N7           2.0080    -0.0050    -1.0850 n          1 73D       0.013000
     12 C10          1.5190    -0.0120    -2.4650 c3         1 73D       0.042000
     13 C11          1.3520    -1.4580    -2.9400 c3         1 73D      -0.018100
     14 H3           4.8190    -0.0000     2.3520 ha         1 73D       0.112000
     15 H4           6.8440    -0.0020     0.9460 ha         1 73D       0.112000
     16 H5           6.6450    -0.0020    -1.5070 ha         1 73D       0.104000
     17 H6           4.4340    -0.0010    -2.5820 ha         1 73D       0.112000
     18 H7           2.2310     0.4980    -3.1030 h1         1 73D       0.034700
     19 H8           0.5630     0.4960    -2.5120 h1         1 73D       0.034700
     20 H9           0.3070    -1.7370    -2.8860 hc         1 73D       0.013700
     21 H10          1.6960    -1.5440    -3.9630 hc         1 73D       0.013700
     22 H11          1.9350    -2.1160    -2.3060 hc         1 73D       0.013700
@<TRIPOS>BOND
     1     1     2 2   
     2     2     3 1   
     3     2    11 1   
     4     3     4 2   
     5     3     5 1   
     6     5     6 ar  
     7     5    10 ar  
     8     6     7 ar  
     9     6    14 1   
    10     7     8 ar  
    11     7    15 1   
    12     8     9 ar  
    13     8    16 1   
    14     9    10 ar  
    15     9    17 1   
    16    10    11 1   
    17    11    12 1   
    18    12    13 1   
    19    12    18 1   
    20    12    19 1   
    21    13    20 1   
    22    13    21 1   
    23    13    22 1   
@<TRIPOS>SUBSTRUCTURE
     1 73D         1 TEMP              0 ****  ****    0 ROOT
