@<TRIPOS>MOLECULE
molecule
   22    23     1     0     0
SMALL
bcc


@<TRIPOS>ATOM
      1 O11          0.0000     0.0000     0.0000 o          1 73D      -0.552500
      2 C8           1.2130     0.0000     0.0000 c          1 73D       0.615500
      3 C9           2.1000     0.0000     1.2100 c          1 73D       0.511700
      4 O12          1.7610     0.0000     2.3760 o          1 73D      -0.444100
      5 C1           3.4720    -0.0000     0.6720 ca         1 73D      -0.253600
      6 C2           4.7310    -0.0010     1.2720 ca         1 73D      -0.019000
      7 C3           5.8640    -0.0010     0.4840 ca         1 73D      -0.175000
      8 C4           5.7510    -0.0020    -0.8960 ca         1 73D      -0.061000
      9 C5           4.5080    -0.0000    -1.5010 ca         1 73D      -0.173000
     10 C6           3.3540     0.0000    -0.7290 ca         1 73D       0.097600
     11 N7           2.0080    -0.0050    -1.0850 n          1 73D      -0.374000
     12 C10          1.5190    -0.0120    -2.4650 c3         1 73D       0.106000
     13 C11          1.3520    -1.4580    -2.9400 c3         1 73D      -0.118100
     14 H3           4.8190    -0.0000     2.3520 ha         1 73D       0.148000
     15 H4           6.8440    -0.0020     0.9460 ha         1 73D       0.141000
     16 H5           6.6450    -0.0020    -1.5070 ha         1 73D       0.138000
     17 H6           4.4340    -0.0010    -2.5820 ha         1 73D       0.138000
     18 H7           2.2310     0.4980    -3.1030 h1         1 73D       0.064700
     19 H8           0.5630     0.4960    -2.5120 h1         1 73D       0.064700
     20 H9           0.3070    -1.7370    -2.8860 hc         1 73D       0.048033
     21 H10          1.6960    -1.5440    -3.9630 hc         1 73D       0.048033
     22 H11          1.9350    -2.1160    -2.3060 hc         1 73D       0.048033
@<TRIPOS>BOND
     1     8     7 ar
     2     8     9 ar
     3     7     6 ar
     4     9    10 ar
     5     6     5 ar
     6    10     5 ar
     7    10    11 1
     8     5     3 1
     9    11    12 1
    10    11     2 1
    11    12    13 1
    12     3     4 2
    13     3     2 1
    14     2     1 2
    15     6    14 1
    16     7    15 1
    17     8    16 1
    18     9    17 1
    19    12    18 1
    20    12    19 1
    21    13    20 1
    22    13    21 1
    23    13    22 1
@<TRIPOS>SUBSTRUCTURE
     1 73D         1 TEMP              0 ****  ****    0 ROOT
