@<TRIPOS>MOLECULE
molecule
   39    41     1     0     0
SMALL
bcc


@<TRIPOS>ATOM
      1 O3'          0.0000     0.0000     0.0000 oh         1 73E      -0.604800
      2 C3'          1.4290     0.0000     0.0000 c3         1 73E       0.103100
      3 C4'          1.9430     0.0000     1.4430 c3         1 73E       0.103100
      4 O4'          1.5300     1.2030     2.0960 oh         1 73E      -0.603800
      5 C2'          1.9420    -1.2550    -0.7130 c3         1 73E       0.112100
      6 O2'          1.5290    -1.2300    -2.0800 oh         1 73E      -0.604800
      7 C1'          3.4710    -1.2860    -0.6400 c3         1 73E       0.139800
      8 O5'          3.8820    -1.2540     0.7290 os         1 73E      -0.382600
      9 C5'          3.4710    -0.0800     1.4330 c3         1 73E       0.145100
     10 C6'          3.9890    -0.1410     2.8720 c3         1 73E       0.152400
     11 O6'          5.4170    -0.0970     2.8660 oh         1 73E      -0.601800
     12 C1           3.9800    -2.5480    -1.2870 cc         1 73E       0.376800
     13 N5           4.8890    -2.6260    -2.2960 na         1 73E      -0.419700
     14 C4           5.0440    -3.9600    -2.5570 cc         1 73E       0.425000
     15 N3           4.2530    -4.6070    -1.7290 nd         1 73E      -0.348000
     16 N2           3.6310    -3.7690    -0.9780 nd         1 73E      -0.337000
     17 C6           5.9300    -4.5600    -3.5770 ca         1 73E      -0.117500
     18 C7           5.9850    -5.9470    -3.7300 ca         1 73E      -0.103500
     19 C8           6.8140    -6.5000    -4.6850 ca         1 73E      -0.128000
     20 C9           7.5900    -5.6840    -5.4870 ca         1 73E      -0.117000
     21 C10          7.5410    -4.3090    -5.3410 ca         1 73E      -0.128000
     22 C11          6.7120    -3.7430    -4.3940 ca         1 73E      -0.103500
     23 H1          -0.3140     0.7730    -0.4390 ho         1 73E       0.414000
     24 H2           1.7960     0.8810    -0.5130 h1         1 73E       0.057700
     25 H3           1.5410    -0.8580     1.9680 h1         1 73E       0.062700
     26 H4           0.7880     1.0220     2.6480 ho         1 73E       0.415000
     27 H5           1.5400    -2.1350    -0.2250 h1         1 73E       0.080700
     28 H6           0.7240    -1.7110    -2.1740 ho         1 73E       0.422000
     29 H7           3.8730    -0.4220    -1.1560 h1         1 73E       0.051700
     30 H8           3.8730     0.7960     0.9370 h1         1 73E       0.061700
     31 H9           3.6030     0.7030     3.4300 h1         1 73E       0.039200
     32 H10          3.6580    -1.0620     3.3360 h1         1 73E       0.039200
     33 H11          5.7340    -0.0860     3.7540 ho         1 73E       0.405000
     34 H12          5.3500    -1.8640    -2.7530 hn         1 73E       0.311700
     35 H13          5.3770    -6.5870    -3.1020 ha         1 73E       0.139500
     36 H14          6.8580    -7.5760    -4.8050 ha         1 73E       0.135000
     37 H15          8.2410    -6.1230    -6.2340 ha         1 73E       0.132000
     38 H16          8.1500    -3.6760    -5.9750 ha         1 73E       0.135000
     39 H17          6.6730    -2.6660    -4.2800 ha         1 73E       0.139500
@<TRIPOS>BOND
     1     1     2 1   
     2     4     3 1   
     3     2     3 1   
     4     2     5 1   
     5     3     9 1   
     6     6     5 1   
     7     5     7 1   
     8    11    10 1   
     9     9    10 1   
    10     9     8 1   
    11     7     8 1   
    12     7    12 1   
    13    16    12 2   
    14    16    15 1   
    15    12    13 1   
    16    15    14 2   
    17    13    14 1   
    18    14    17 1   
    19    17    18 ar  
    20    17    22 ar  
    21    18    19 ar  
    22    22    21 ar  
    23    19    20 ar  
    24    21    20 ar  
    25     1    23 1   
    26     2    24 1   
    27     3    25 1   
    28     4    26 1   
    29     5    27 1   
    30     6    28 1   
    31     7    29 1   
    32     9    30 1   
    33    10    31 1   
    34    10    32 1   
    35    11    33 1   
    36    13    34 1   
    37    18    35 1   
    38    19    36 1   
    39    20    37 1   
    40    21    38 1   
    41    22    39 1   
@<TRIPOS>SUBSTRUCTURE
     1 73E         1 TEMP              0 ****  ****    0 ROOT
