@<TRIPOS>MOLECULE
73F
   32    34     1     0     0
SMALL
bcc


@<TRIPOS>ATOM
      1 O10          0.0000     0.0000     0.0000 o          1 73F      -0.592500
      2 C8           1.2130     0.0000     0.0000 c          1 73F       0.523500
      3 C9           2.1000     0.0000     1.2100 c          1 73F       0.557700
      4 O11          1.7620     0.0010     2.3740 o          1 73F      -0.472100
      5 C1           3.4730    -0.0000     0.6710 ca         1 73F      -0.266600
      6 C2           4.7310    -0.0010     1.2710 ca         1 73F       0.023000
      7 C3           5.8650    -0.0030     0.4830 ca         1 73F      -0.149000
      8 C4           5.7500    -0.0030    -0.8970 ca         1 73F      -0.032000
      9 C5           4.5080    -0.0030    -1.5020 ca         1 73F      -0.141000
     10 C6           3.3540    -0.0010    -0.7290 ca         1 73F      -0.041400
     11 N7           2.0080    -0.0060    -1.0850 n          1 73F       0.014000
     12 C12          1.5190    -0.0130    -2.4660 c3         1 73F       0.043000
     13 C13          1.3520    -1.4590    -2.9400 c3         1 73F       0.009900
     14 C14          0.8490    -1.4670    -4.3610 ca         1 73F      -0.096300
     15 C15          1.7470    -1.4690    -5.4120 ca         1 73F      -0.095000
     16 C16          1.2860    -1.4760    -6.7140 ca         1 73F      -0.097000
     17 C17         -0.0740    -1.4800    -6.9660 ca         1 73F      -0.100000
     18 C18         -0.9710    -1.4770    -5.9160 ca         1 73F      -0.097000
     19 C19         -0.5100    -1.4770    -4.6130 ca         1 73F      -0.095000
     20 H3           4.8180    -0.0010     2.3500 ha         1 73F       0.112000
     21 H4           6.8450    -0.0030     0.9450 ha         1 73F       0.113000
     22 H5           6.6450    -0.0040    -1.5080 ha         1 73F       0.104000
     23 H6           4.4340    -0.0030    -2.5830 ha         1 73F       0.113000
     24 H7           2.2310     0.4960    -3.1040 h1         1 73F       0.039700
     25 H8           0.5630     0.4950    -2.5140 h1         1 73F       0.039700
     26 H9           0.6390    -1.9680    -2.3020 hc         1 73F       0.028700
     27 H10          2.3070    -1.9670    -2.8920 hc         1 73F       0.028700
     28 H11          2.8120    -1.4660    -5.2140 ha         1 73F       0.107500
     29 H12          1.9890    -1.4780    -7.5380 ha         1 73F       0.104000
     30 H13         -0.4350    -1.4830    -7.9880 ha         1 73F       0.103000
     31 H14         -2.0360    -1.4830    -6.1140 ha         1 73F       0.104000
     32 H15         -1.2140    -1.4740    -3.7890 ha         1 73F       0.107500
@<TRIPOS>BOND
     1     1     2 2   
     2     2     3 1   
     3     2    11 1   
     4     3     4 2   
     5     3     5 1   
     6     5     6 ar  
     7     5    10 ar  
     8     6     7 ar  
     9     6    20 1   
    10     7     8 ar  
    11     7    21 1   
    12     8     9 ar  
    13     8    22 1   
    14     9    10 ar  
    15     9    23 1   
    16    10    11 1   
    17    11    12 1   
    18    12    13 1   
    19    12    24 1   
    20    12    25 1   
    21    13    14 1   
    22    13    26 1   
    23    13    27 1   
    24    14    15 ar  
    25    14    19 ar  
    26    15    16 ar  
    27    15    28 1   
    28    16    17 ar  
    29    16    29 1   
    30    17    18 ar  
    31    17    30 1   
    32    18    19 ar  
    33    18    31 1   
    34    19    32 1   
@<TRIPOS>SUBSTRUCTURE
     1 73F         1 TEMP              0 ****  ****    0 ROOT
