@<TRIPOS>MOLECULE
73G
   34    35     1     0     0
SMALL
bcc


@<TRIPOS>ATOM
      1 O10          0.0000     0.0000     0.0000 o          1 73G      -0.589500
      2 C8           1.2120     0.0000     0.0000 c          1 73G       0.531500
      3 C9           2.0990     0.0000     1.2100 c          1 73G       0.562700
      4 O11          1.7610    -0.0010     2.3750 o          1 73G      -0.471100
      5 C1           3.4720    -0.0000     0.6730 ca         1 73G      -0.257600
      6 C2           4.7300    -0.0000     1.2730 ca         1 73G       0.023000
      7 C3           5.8650    -0.0010     0.4860 ca         1 73G      -0.146000
      8 C4           5.7510    -0.0010    -0.8930 ca         1 73G      -0.032000
      9 C5           4.5080     0.0010    -1.4990 ca         1 73G      -0.137000
     10 C6           3.3550     0.0010    -0.7280 ca         1 73G      -0.039400
     11 N7           2.0080    -0.0040    -1.0840 n          1 73G       0.033000
     12 CA           1.5200    -0.0110    -2.4650 c3         1 73G      -0.001000
     13 C            1.3560    -1.4340    -2.9330 c          1 73G       0.673100
     14 O            1.6200    -2.3490    -2.1890 o          1 73G      -0.572000
     15 O12          0.9170    -1.6860    -4.1770 os         1 73G      -0.411900
     16 C13          0.7830    -3.0800    -4.5590 c3         1 73G       0.227400
     17 C14          0.2750    -3.1680    -5.9990 c3         1 73G      -0.041400
     18 C15          0.1340    -4.6360    -6.4020 c3         1 73G      -0.021400
     19 C16         -0.3750    -4.7240    -7.8430 c3         1 73G       0.008900
     20 H3           4.8170    -0.0010     2.3530 ha         1 73G       0.113000
     21 H4           6.8440    -0.0030     0.9490 ha         1 73G       0.112000
     22 H5           6.6450    -0.0020    -1.5050 ha         1 73G       0.104000
     23 H6           4.4350     0.0010    -2.5800 ha         1 73G       0.109000
     24 H7           2.2310     0.5000    -3.1020 h1         1 73G       0.056200
     25 H8           0.5640     0.4960    -2.5120 h1         1 73G       0.056200
     26 H9           0.0790    -3.5700    -3.8970 h1         1 73G       0.013200
     27 H10          1.7470    -3.5680    -4.4860 h1         1 73G       0.013200
     28 H11          0.9790    -2.6780    -6.6610 hc         1 73G       0.023200
     29 H12         -0.6890    -2.6790    -6.0720 hc         1 73G       0.023200
     30 H13         -0.5700    -5.1260    -5.7400 hc         1 73G       0.014700
     31 H14          1.0980    -5.1240    -6.3290 hc         1 73G       0.014700
     32 H15         -1.3390    -4.2360    -7.9160 hc         1 73G       0.002367
     33 H16          0.3290    -4.2340    -8.5050 hc         1 73G       0.002367
     34 H17         -0.4750    -5.7650    -8.1270 hc         1 73G       0.002367
@<TRIPOS>BOND
     1     1     2 2   
     2     2     3 1   
     3     2    11 1   
     4     3     4 2   
     5     3     5 1   
     6     5     6 ar  
     7     5    10 ar  
     8     6     7 ar  
     9     6    20 1   
    10     7     8 ar  
    11     7    21 1   
    12     8     9 ar  
    13     8    22 1   
    14     9    10 ar  
    15     9    23 1   
    16    10    11 1   
    17    11    12 1   
    18    12    13 1   
    19    12    24 1   
    20    12    25 1   
    21    13    14 2   
    22    13    15 1   
    23    15    16 1   
    24    16    17 1   
    25    16    26 1   
    26    16    27 1   
    27    17    18 1   
    28    17    28 1   
    29    17    29 1   
    30    18    19 1   
    31    18    30 1   
    32    18    31 1   
    33    19    32 1   
    34    19    33 1   
    35    19    34 1   
@<TRIPOS>SUBSTRUCTURE
     1 73G         1 TEMP              0 ****  ****    0 ROOT
