@<TRIPOS>MOLECULE
molecule
   32    34     1     0     0
SMALL
bcc


@<TRIPOS>ATOM
      1 O11          0.0000     0.0000     0.0000 o          1 73H      -0.549500
      2 C8           1.2130     0.0000     0.0000 c          1 73H       0.616500
      3 C9           2.0990     0.0000     1.2110 c          1 73H       0.511700
      4 O12          1.7590    -0.0010     2.3760 o          1 73H      -0.435100
      5 C1           3.4720    -0.0000     0.6730 ca         1 73H      -0.228600
      6 C2           4.7300     0.0000     1.2760 ca         1 73H      -0.060000
      7 C3           5.8660    -0.0010     0.4880 ca         1 73H       0.090900
      8 F10          7.0870    -0.0020     1.0660 f          1 73H      -0.133900
      9 C4           5.7520    -0.0020    -0.8930 ca         1 73H      -0.102000
     10 C5           4.5100    -0.0010    -1.4980 ca         1 73H      -0.148000
     11 C6           3.3560     0.0000    -0.7260 ca         1 73H       0.083600
     12 N7           2.0080    -0.0060    -1.0830 n          1 73H      -0.373000
     13 C13          1.5210    -0.0170    -2.4650 c3         1 73H       0.112000
     14 C14          1.3550    -1.4620    -2.9360 c3         1 73H      -0.057100
     15 C15          0.8530    -1.4730    -4.3570 ca         1 73H      -0.092300
     16 C16          1.7520    -1.4780    -5.4080 ca         1 73H      -0.122500
     17 C17          1.2920    -1.4870    -6.7110 ca         1 73H      -0.125000
     18 C18         -0.0670    -1.4930    -6.9640 ca         1 73H      -0.125000
     19 C19         -0.9660    -1.4870    -5.9140 ca         1 73H      -0.125000
     20 C20         -0.5060    -1.4840    -4.6100 ca         1 73H      -0.122500
     21 H3           4.8160     0.1100     2.3510 ha         1 73H       0.164000
     22 H4           6.6460    -0.0030    -1.5050 ha         1 73H       0.154000
     23 H5           4.4360    -0.0020    -2.5790 ha         1 73H       0.145000
     24 H6           2.2340     0.4920    -3.1030 h1         1 73H       0.070200
     25 H7           0.5660     0.4920    -2.5140 h1         1 73H       0.070200
     26 H8           2.3100    -1.9710    -2.8860 hc         1 73H       0.061200
     27 H9           0.6420    -1.9710    -2.2970 hc         1 73H       0.061200
     28 H10          2.8170    -1.4740    -5.2090 ha         1 73H       0.132000
     29 H11          1.9960    -1.4910    -7.5330 ha         1 73H       0.132000
     30 H12         -0.4270    -1.4970    -7.9860 ha         1 73H       0.131000
     31 H13         -2.0310    -1.4940    -6.1130 ha         1 73H       0.132000
     32 H14         -1.2100    -1.4800    -3.7870 ha         1 73H       0.132000
@<TRIPOS>BOND
     1     8     7 1   
     2     9     7 ar  
     3     9    10 ar  
     4     7     6 ar  
     5    10    11 ar  
     6     6     5 ar  
     7    19    20 ar  
     8    19    18 ar  
     9    20    15 ar  
    10    11     5 ar  
    11    11    12 1   
    12     5     3 1   
    13    18    17 ar  
    14    12    13 1   
    15    12     2 1   
    16    13    14 1   
    17    15    14 1   
    18    15    16 ar  
    19     3     4 2   
    20     3     2 1   
    21     2     1 2   
    22    17    16 ar  
    23     6    21 1   
    24     9    22 1   
    25    10    23 1   
    26    13    24 1   
    27    13    25 1   
    28    14    26 1   
    29    14    27 1   
    30    16    28 1   
    31    17    29 1   
    32    18    30 1   
    33    19    31 1   
    34    20    32 1   
@<TRIPOS>SUBSTRUCTURE
     1 73H         1 TEMP              0 ****  ****    0 ROOT
