@<TRIPOS>MOLECULE
molecule
   53    59     1     0     0
SMALL
bcc


@<TRIPOS>ATOM
      1 C4           0.0000     0.0000     0.0000 ca         1 73J      -0.064600
      2 C6           3.6230    -0.0020    -0.4220 cc         1 73J      -0.099100
      3 C7           2.4290    -0.0020    -1.0430 cd         1 73J      -0.173200
      4 C8           1.4090     0.0000     0.0000 ca         1 73J      -0.169100
      5 C9           2.0990     0.0000     1.2280 ca         1 73J       0.460800
      6 C10         -0.7640    -0.0000    -1.2640 c          1 73J       0.676700
      7 N3           1.4230     0.0000     2.3670 nb         1 73J      -0.699000
      8 C13         -2.1710     2.3970    -3.3490 ca         1 73J      -0.103000
      9 C14         -3.9940     3.8780    -3.8320 ca         1 73J      -0.136000
     10 C15         -2.6340     3.6300    -3.7740 ca         1 73J      -0.118000
     11 C1          -0.6490    -0.0050     1.2370 ca         1 73J      -0.262300
     12 C2           0.1060     0.0010     2.3970 ca         1 73J       0.439200
     13 N5           3.4420    -0.0010     0.9320 na         1 73J      -0.281100
     14 N11         -2.1120    -0.0000    -1.2370 ns         1 73J      -0.568900
     15 O12         -0.1780    -0.0000    -2.3290 o          1 73J      -0.605100
     16 C16         -4.8950     2.9000    -3.4660 ca         1 73J      -0.096000
     17 C17         -4.4360     1.6560    -3.0290 cp         1 73J      -0.061000
     18 C18         -3.0640     1.4140    -2.9800 ca         1 73J      -0.100300
     19 C19         -2.8700    -0.0000    -2.4900 c3         1 73J       0.219300
     20 C20         -5.1660     0.4450    -2.5860 cp         1 73J       0.033000
     21 C21         -4.2550    -0.5540    -2.2590 ca         1 73J      -0.122300
     22 C22         -4.6970    -1.7840    -1.8170 ca         1 73J      -0.082000
     23 C23         -6.0540    -2.0370    -1.6940 ca         1 73J      -0.136000
     24 C24         -6.9740    -1.0600    -2.0130 ca         1 73J      -0.107000
     25 C25         -6.5440     0.1880    -2.4600 ca         1 73J      -0.103900
     26 C26         -7.5290     1.2340    -2.8010 cd         1 73J       0.491400
     27 N27         -8.7920     1.0030    -3.2790 na         1 73J      -0.257300
     28 N28         -7.3280     2.5250    -2.6860 nc         1 73J      -0.596100
     29 C29         -8.4360     3.1960    -3.0850 ca         1 73J       0.110400
     30 C30         -9.3890     2.2350    -3.4700 ca         1 73J      -0.104200
     31 C31        -10.6340     2.6380    -3.9270 ca         1 73J      -0.102000
     32 C32        -10.9360     3.9820    -4.0040 ca         1 73J      -0.149000
     33 C33        -10.0000     4.9360    -3.6250 ca         1 73J       0.119900
     34 C34         -8.7580     4.5540    -3.1650 ca         1 73J      -0.118000
     35 F35        -10.3100     6.2490    -3.7060 f          1 73J      -0.138900
     36 H1           4.5840    -0.0030    -0.9220 h4         1 73J       0.173000
     37 H2           2.2580    -0.0030    -2.1130 ha         1 73J       0.182000
     38 H4          -4.3520     4.8440    -4.1650 ha         1 73J       0.131000
     39 H5          -1.9310     4.4020    -4.0630 ha         1 73J       0.131000
     40 H6          -1.7310    -0.0040     1.2880 ha         1 73J       0.134000
     41 H7          -0.3990    -0.0030     3.3550 h4         1 73J       0.026100
     42 H8           4.1790    -0.0000     1.6100 hn         1 73J       0.305700
     43 H9          -2.5940     0.0200    -0.3600 hn         1 73J       0.323500
     44 H10         -5.9590     3.0990    -3.5130 ha         1 73J       0.189000
     45 H11         -2.3570    -0.5870    -3.2420 h1         1 73J       0.101700
     46 H12         -3.9800    -2.5560    -1.5640 ha         1 73J       0.140000
     47 H13         -6.3930    -3.0050    -1.3460 ha         1 73J       0.139000
     48 H14         -8.0340    -1.2630    -1.9150 ha         1 73J       0.127000
     49 H15         -9.2500     0.1140    -3.3250 hn         1 73J       0.306700
     50 H17        -11.3690     1.8990    -4.2240 ha         1 73J       0.135000
     51 H18        -11.9090     4.2950    -4.3640 ha         1 73J       0.150000
     52 H19         -8.0330     5.3030    -2.8710 ha         1 73J       0.159000
     53 H3          -1.1060     2.2050    -3.3040 ha         1 73J       0.149000
@<TRIPOS>BOND
     1    10     9 ar  
     2    10     8 ar  
     3    12    11 ar  
     4    12     7 ar  
     5     9    16 ar  
     6     8    18 ar  
     7    11     1 ar  
     8     7     5 ar  
     9     1     6 1   
    10     1     4 ar  
    11     5     4 ar  
    12     5    13 1   
    13     6    15 2   
    14     6    14 1   
    15     4     3 1   
    16    16    17 ar  
    17    18    17 ar  
    18    18    19 1   
    19    13     2 1   
    20    14    19 1   
    21     3     2 2   
    22    17    20 1   
    23    19    21 1   
    24    20    21 ar  
    25    20    25 ar  
    26    21    22 ar  
    27    28    29 1   
    28    28    26 2   
    29    34    29 ar  
    30    34    33 ar  
    31    29    30 ar  
    32    26    25 1   
    33    26    27 1   
    34    25    24 ar  
    35    33    35 1   
    36    33    32 ar  
    37    30    27 1   
    38    30    31 ar  
    39    22    23 ar  
    40    32    31 ar  
    41    24    23 ar  
    42     2    36 1   
    43     3    37 1   
    44     8    53 1   
    45     9    38 1   
    46    10    39 1   
    47    11    40 1   
    48    12    41 1   
    49    13    42 1   
    50    14    43 1   
    51    16    44 1   
    52    19    45 1   
    53    22    46 1   
    54    23    47 1   
    55    24    48 1   
    56    27    49 1   
    57    31    50 1   
    58    32    51 1   
    59    34    52 1   
@<TRIPOS>SUBSTRUCTURE
     1 73J         1 TEMP              0 ****  ****    0 ROOT
