@<TRIPOS>MOLECULE
73L
   63    67     1     0     0
SMALL
bcc


@<TRIPOS>ATOM
      1 C1           0.0000     0.0000     0.0000 cc         1 73L       0.366600
      2 C2           1.3360     0.0000     0.0000 cd         1 73L      -0.145700
      3 C3           0.2530     0.0010     2.2110 cd         1 73L       0.447700
      4 C7           4.5580    -0.8820     0.1380 cc         1 73L      -0.249600
      5 C8           5.6940    -1.3100     0.7970 cd         1 73L      -0.004000
      6 C9           6.1940    -2.5860     0.5860 cd         1 73L      -0.582000
      7 C10          5.5640    -3.4480    -0.2870 cd         1 73L       0.062000
      8 C11          4.4170    -3.0280    -0.9570 cc         1 73L      -0.315800
      9 C12          3.7050    -3.9080    -1.9000 c          1 73L       0.647700
     10 C13          2.1560    -2.1860    -2.2750 c          1 73L       0.613500
     11 C15          0.8220    -5.0690    -2.7140 cc         1 73L      -0.367600
     12 C16         -0.4980    -4.6670    -2.4890 cc         1 73L       0.419200
     13 C19          9.6740    -1.3610     1.4970 cx         1 73L      -0.176300
     14 C20         10.4720    -1.5080     2.7940 cx         1 73L      -0.041400
     15 C21         10.3400    -0.1360     2.1280 cx         1 73L      -0.041400
     16 C22         10.2950    -1.9230     0.2170 c3         1 73L       0.011900
     17 O3           9.0360    -3.6360     2.2780 oh         1 73L      -0.548200
     18 S1           7.6850    -3.1230     1.4620 s6         1 73L       0.758400
     19 O2           8.1260    -4.0370     0.1480 oh         1 73L      -0.548200
     20 N5           8.2110    -1.4580     1.5870 n7         1 73L      -0.194400
     21 C6           3.9100    -1.7340    -0.7430 cc         1 73L       0.129200
     22 O            4.1010    -5.0370    -2.1220 o          1 73L      -0.663500
     23 N2           2.6000    -3.4300    -2.5130 n          1 73L      -0.082400
     24 C17          0.9860    -6.2890    -2.1540 cd         1 73L      -0.223300
     25 N4          -0.1880    -6.6440    -1.5890 na         1 73L       0.492400
     26 C18         -0.4640    -7.9000    -0.9150 c3         1 73L       0.019600
     27 N3          -1.1040    -5.6090    -1.8130 nd         1 73L      -0.657800
     28 O1           1.1560    -1.8050    -2.8540 o          1 73L      -0.716500
     29 N1           2.7680    -1.3440    -1.4260 n          1 73L       0.058600
     30 C5           2.2230     0.0010    -1.2180 c3         1 73L       0.036300
     31 S            1.8780     0.0000     1.6760 ss         1 73L      -0.317300
     32 C4          -0.1800     0.0020     3.6540 c3         1 73L      -0.004400
     33 N           -0.5470     0.0010     1.1990 nc         1 73L      -0.561000
     34 C           -0.8160     0.0060    -1.2680 c3         1 73L      -0.037400
     35 H8           4.1760     0.1170     0.3100 ha         1 73L       0.127000
     36 H9           6.2020    -0.6460     1.4850 ha         1 73L       0.120000
     37 H10          5.9610    -4.4430    -0.4470 ha         1 73L       0.111000
     38 H11          2.5450    -4.9690    -3.9600 h1         1 73L       0.048200
     39 H12          1.3970    -3.6420    -4.1850 h1         1 73L       0.048200
     40 H13         -0.9440    -3.7340    -2.8130 h4         1 73L       0.017100
     41 H20          9.8830    -1.6500     3.6920 hc         1 73L       0.052200
     42 H19         11.4400    -1.9840     2.6960 hc         1 73L       0.052200
     43 H21         11.2270     0.2260     1.6230 hc         1 73L       0.052200
     44 H22          9.6700     0.5590     2.6190 hc         1 73L       0.052200
     45 H25         10.5560    -2.9630     0.3680 hc         1 73L       0.016367
     46 H24          9.5830    -1.8430    -0.5950 hc         1 73L       0.016367
     47 H23         11.1880    -1.3590    -0.0290 hc         1 73L       0.016367
     48 H26          9.5840    -4.1360     1.6960 ho         1 73L       0.426500
     49 H27          7.6910    -4.8720     0.1860 ho         1 73L       0.426500
     50 H18          7.7950    -0.9080     0.8630 hn         1 73L       0.161700
     51 H14          1.8820    -6.8960    -2.2010 h4         1 73L       0.157000
     52 H17         -1.4450    -7.8560    -0.4570 h1         1 73L       0.021367
     53 H16         -0.4390    -8.7090    -1.6350 h1         1 73L       0.021367
     54 H15          0.2840    -8.0730    -0.1510 h1         1 73L       0.021367
     55 H6           1.6550    -0.2790    -2.0970 h1         1 73L       0.086200
     56 H7           2.6720     0.9770    -1.3550 h1         1 73L       0.086200
     57 H3           0.4910    -0.6210     4.2330 hc         1 73L       0.019367
     58 H5          -1.1890    -0.3860     3.7280 hc         1 73L       0.019367
     59 H4          -0.1540     1.0150     4.0380 hc         1 73L       0.019367
     60 H1          -0.7000    -0.9430    -1.7760 hc         1 73L       0.025033
     61 H2          -0.4730     0.8060    -1.9130 hc         1 73L       0.025033
     62 H           -1.8600     0.1600    -1.0240 hc         1 73L       0.025033
     63 C14          1.8740    -4.2850    -3.4550 c3         1 73L       0.145300
@<TRIPOS>BOND
     1     1     2 2   
     2     1    33 1   
     3     1    34 1   
     4     2    30 1   
     5     2    31 1   
     6     3    31 1   
     7     3    32 1   
     8     3    33 2   
     9     4     5 2   
    10     4    21 1   
    11     4    35 1   
    12     5     6 1   
    13     5    36 1   
    14     6     7 1   
    15     6    18 2   
    16     7     8 2   
    17     7    37 1   
    18     8     9 1   
    19     8    21 1   
    20     9    22 2   
    21     9    23 1   
    22    10    23 1   
    23    10    28 2   
    24    10    29 1   
    25    11    12 1   
    26    11    24 2   
    27    11    63 1   
    28    12    27 2   
    29    12    40 1   
    30    13    14 1   
    31    13    15 1   
    32    13    16 1   
    33    13    20 1   
    34    14    15 1   
    35    14    41 1   
    36    14    42 1   
    37    15    43 1   
    38    15    44 1   
    39    16    45 1   
    40    16    46 1   
    41    16    47 1   
    42    17    18 1   
    43    17    48 1   
    44    18    19 1   
    45    18    20 2   
    46    19    49 1   
    47    20    50 1   
    48    21    29 2   
    49    23    63 1   
    50    24    25 1   
    51    24    51 1   
    52    25    26 1   
    53    25    27 1   
    54    26    52 1   
    55    26    53 1   
    56    26    54 1   
    57    29    30 1   
    58    30    55 1   
    59    30    56 1   
    60    32    57 1   
    61    32    58 1   
    62    32    59 1   
    63    34    60 1   
    64    34    61 1   
    65    34    62 1   
    66    38    63 1   
    67    39    63 1   
@<TRIPOS>SUBSTRUCTURE
     1 73L         1 TEMP              0 ****  ****    0 ROOT
