@<TRIPOS>MOLECULE
molecule
   63    67     1     0     0
SMALL
bcc


@<TRIPOS>ATOM
      1 C1           0.0000     0.0000     0.0000 cc         1 73L       0.409600
      2 C2           1.3360     0.0000     0.0000 cd         1 73L      -0.179700
      3 C3           0.2530     0.0010     2.2110 cd         1 73L       0.460700
      4 C7           4.5580    -0.8820     0.1380 cc         1 73L      -0.191000
      5 C8           5.6940    -1.3100     0.7970 cd         1 73L      -0.028000
      6 C9           6.1940    -2.5860     0.5860 cd         1 73L      -0.691000
      7 C10          5.5640    -3.4480    -0.2870 cd         1 73L       0.024000
      8 C11          4.4170    -3.0280    -0.9570 cc         1 73L      -0.217200
      9 C12          3.7050    -3.9080    -1.9000 c          1 73L       0.719700
     10 C13          2.1560    -2.1860    -2.2750 c          1 73L       0.829500
     11 C15          0.8220    -5.0690    -2.7140 cc         1 73L      -0.349600
     12 C16         -0.4980    -4.6670    -2.4890 cc         1 73L       0.356200
     13 C19          9.6740    -1.3610     1.4970 cx         1 73L      -0.118300
     14 C20         10.4720    -1.5080     2.7940 cx         1 73L      -0.094900
     15 C21         10.3400    -0.1360     2.1280 cx         1 73L      -0.094900
     16 C22         10.2950    -1.9230     0.2170 c3         1 73L      -0.090100
     17 O3           9.0360    -3.6360     2.2780 oh         1 73L      -0.646700
     18 S1           7.6850    -3.1230     1.4620 s6         1 73L       1.217400
     19 O2           8.1260    -4.0370     0.1480 oh         1 73L      -0.646700
     20 N5           8.2110    -1.4580     1.5870 n7         1 73L      -0.504400
     21 C6           3.9100    -1.7340    -0.7430 cc         1 73L       0.107000
     22 O            4.1010    -5.0370    -2.1220 o          1 73L      -0.626500
     23 N2           2.6000    -3.4300    -2.5130 n          1 73L      -0.462400
     24 C17          0.9860    -6.2890    -2.1540 cd         1 73L      -0.083300
     25 N4          -0.1880    -6.6440    -1.5890 na         1 73L       0.066400
     26 C18         -0.4640    -7.9000    -0.9150 c3         1 73L       0.061600
     27 N3          -1.1040    -5.6090    -1.8130 nd         1 73L      -0.516800
     28 O1           1.1560    -1.8050    -2.8540 o          1 73L      -0.668500
     29 N1           2.7680    -1.3440    -1.4260 n          1 73L      -0.356400
     30 C5           2.2230     0.0010    -1.2180 c3         1 73L       0.125300
     31 S            1.8780     0.0000     1.6760 ss         1 73L      -0.218300
     32 C4          -0.1800     0.0020     3.6540 c3         1 73L      -0.116400
     33 N           -0.5470     0.0010     1.1990 nc         1 73L      -0.686000
     34 C           -0.8160     0.0060    -1.2680 c3         1 73L      -0.125400
     35 H8           4.1760     0.1170     0.3100 ha         1 73L       0.139000
     36 H9           6.2020    -0.6460     1.4850 ha         1 73L       0.146000
     37 H10          5.9610    -4.4430    -0.4470 ha         1 73L       0.137000
     38 H11          2.5450    -4.9690    -3.9600 h1         1 73L       0.079700
     39 H12          1.3970    -3.6420    -4.1850 h1         1 73L       0.079700
     40 H13         -0.9440    -3.7340    -2.8130 h4         1 73L       0.060100
     41 H20          9.8830    -1.6500     3.6920 hc         1 73L       0.082200
     42 H19         11.4400    -1.9840     2.6960 hc         1 73L       0.082200
     43 H21         11.2270     0.2260     1.6230 hc         1 73L       0.082200
     44 H22          9.6700     0.5590     2.6190 hc         1 73L       0.082200
     45 H25         10.5560    -2.9630     0.3680 hc         1 73L       0.048033
     46 H24          9.5830    -1.8430    -0.5950 hc         1 73L       0.048033
     47 H23         11.1880    -1.3590    -0.0290 hc         1 73L       0.048033
     48 H26          9.5840    -4.1360     1.6960 ho         1 73L       0.435500
     49 H27          7.6910    -4.8720     0.1860 ho         1 73L       0.435500
     50 H18          7.7950    -0.9080     0.8630 hn         1 73L       0.241700
     51 H14          1.8820    -6.8960    -2.2010 h4         1 73L       0.181000
     52 H17         -1.4450    -7.8560    -0.4570 h1         1 73L       0.054033
     53 H16         -0.4390    -8.7090    -1.6350 h1         1 73L       0.054033
     54 H15          0.2840    -8.0730    -0.1510 h1         1 73L       0.054033
     55 H6           1.6550    -0.2790    -2.0970 h1         1 73L       0.111200
     56 H7           2.6720     0.9770    -1.3550 h1         1 73L       0.111200
     57 H3           0.4910    -0.6210     4.2330 hc         1 73L       0.058700
     58 H5          -1.1890    -0.3860     3.7280 hc         1 73L       0.058700
     59 H4          -0.1540     1.0150     4.0380 hc         1 73L       0.058700
     60 H1          -0.7000    -0.9430    -1.7760 hc         1 73L       0.058700
     61 H2          -0.4730     0.8060    -1.9130 hc         1 73L       0.058700
     62 H           -1.8600     0.1600    -1.0240 hc         1 73L       0.058700
     63 C14          1.8740    -4.2850    -3.4550 c3         1 73L       0.194300
@<TRIPOS>BOND
     1     1     2 2
     2     1    33 1
     3     1    34 1
     4     2    30 1
     5     2    31 1
     6     3    31 1
     7     3    32 1
     8     3    33 2
     9     4     5 2
    10     4    21 1
    11     5     6 1
    12     6     7 1
    13     6    18 2
    14     7     8 2
    15     8     9 1
    16     8    21 1
    17     9    22 2
    18     9    23 1
    19    10    23 1
    20    10    28 2
    21    10    29 1
    22    63    11 1
    23    63    23 1
    24    11    12 1
    25    11    24 2
    26    12    27 2
    27    13    14 1
    28    13    15 1
    29    13    16 1
    30    13    20 1
    31    14    15 1
    32    17    18 1
    33    18    19 1
    34    18    20 2
    35    21    29 2
    36    24    25 1
    37    25    26 1
    38    25    27 1
    39    29    30 1
    40     4    35 1
    41     5    36 1
    42     7    37 1
    43    63    38 1
    44    63    39 1
    45    12    40 1
    46    14    41 1
    47    14    42 1
    48    15    43 1
    49    15    44 1
    50    16    45 1
    51    16    46 1
    52    16    47 1
    53    17    48 1
    54    19    49 1
    55    20    50 1
    56    24    51 1
    57    26    52 1
    58    26    53 1
    59    26    54 1
    60    30    55 1
    61    30    56 1
    62    32    57 1
    63    32    58 1
    64    32    59 1
    65    34    60 1
    66    34    61 1
    67    34    62 1
@<TRIPOS>SUBSTRUCTURE
     1 73L         1 TEMP              0 ****  ****    0 ROOT
