@<TRIPOS>MOLECULE
73Q
   28    30     1     0     0
SMALL
bcc


@<TRIPOS>ATOM
      1 C1          0.0250    0.0030    0.0530 c3        1 73Q     -0.138400
      2 C2          1.4990   -0.0440    0.0090 cc        1 73Q      0.398600
      3 N1          2.3130   -0.1080    1.1010 nd        1 73Q     -0.514800
      4 N2          3.5920   -0.1430    0.6680 na        1 73Q      0.109400
      5 C3          4.7440   -0.1870    1.5350 c3        1 73Q      0.039600
      6 C4          3.6460   -0.1010   -0.7310 cd        1 73Q      0.104300
      7 N3          4.7700   -0.2790   -1.5880 na        1 73Q     -0.226900
      8 O1          5.9040    0.2250   -1.0770 oh        1 73Q     -0.391300
      9 C5          4.5130    0.1660   -2.9410 ca        1 73Q      0.121600
     10 C6          5.6040    0.4120   -3.8020 ca        1 73Q     -0.140000
     11 C7          5.3950    0.6760   -5.1490 ca        1 73Q     -0.088000
     12 C8          4.0930    0.7040   -5.6620 ca        1 73Q     -0.006600
     13 CL          3.8430    1.0120   -7.3120 cl        1 73Q     -0.079400
     14 C9          3.0020    0.4870   -4.8210 ca        1 73Q     -0.059000
     15 C10         3.1960    0.2320   -3.4580 ca        1 73Q     -0.161600
     16 C11         1.9920    0.0720   -2.5980 c         1 73Q      0.633300
     17 O2          0.8470    0.0560   -3.0720 o         1 73Q     -0.546100
     18 C12         2.3020   -0.0290   -1.1950 cc        1 73Q     -0.352900
     19 H11        -0.3750    0.0610   -0.9920 hc        1 73Q      0.064367
     20 H12        -0.3240    0.8970    0.6280 hc        1 73Q      0.064367
     21 H13        -0.3820   -0.9150    0.5460 hc        1 73Q      0.064367
     22 H31         5.3300   -1.1180    1.3130 h1        1 73Q      0.064700
     23 H32         4.4240   -0.1920    2.6100 h1        1 73Q      0.064700
     24 H33         5.3880    0.7110    1.3340 h1        1 73Q      0.064700
     25 HO1         6.5130   -0.5400   -1.0340 ho        1 73Q      0.432000
     26 H6          6.6310    0.4020   -3.4060 ha        1 73Q      0.149000
     27 H7          6.2560    0.8650   -5.8090 ha        1 73Q      0.154000
     28 H9          1.9690    0.5170   -5.2100 ha        1 73Q      0.178000
@<TRIPOS>BOND
     1    1    2 1
     2    1   19 1
     3    1   20 1
     4    1   21 1
     5    2    3 2
     6    2   18 1
     7    3    4 1
     8    4    5 1
     9    4    6 1
    10    5   22 1
    11    5   23 1
    12    5   24 1
    13    6    7 1
    14    6   18 2
    15    7    8 1
    16    7    9 1
    17    8   25 1
    18    9   10 ar
    19    9   15 ar
    20   10   11 ar
    21   10   26 1
    22   11   12 ar
    23   11   27 1
    24   12   13 1
    25   12   14 ar
    26   14   15 ar
    27   14   28 1
    28   15   16 1
    29   16   17 2
    30   16   18 1
@<TRIPOS>SUBSTRUCTURE
     1 73Q         1 TEMP              0 ****  ****    0 ROOT
