@<TRIPOS>MOLECULE
73R
   71    74     1     0     0
SMALL
bcc


@<TRIPOS>ATOM
      1 C1           0.0000     0.0000     0.0000 ca         1 73R       0.465600
      2 C2           1.4160     0.0000     0.0000 ca         1 73R      -0.335600
      3 C3           2.0850     0.0000     1.2480 ca         1 73R       0.576200
      4 C5           0.0270     0.0010     2.3030 ca         1 73R       0.705900
      5 C8          -0.6860    -0.0010    -1.2220 ca         1 73R      -0.154300
      6 C9           0.0200    -0.0000    -2.3900 ca         1 73R      -0.035000
      7 C12          1.4110    -0.0010    -2.3870 ca         1 73R      -0.228300
      8 C13          2.1100    -0.0000    -1.2150 ca         1 73R       0.008000
      9 C14          4.1330    -0.0010     2.6170 c3         1 73R       0.045500
     10 C15          4.3370     1.4160     3.1070 c          1 73R       0.553500
     11 C17          6.3420     0.3100     3.4960 c3         1 73R       0.050000
     12 C18          5.5650    -0.5680     2.4910 c3         1 73R      -0.041400
     13 CAP          2.1580    -0.0010    -3.6970 c3         1 73R       0.640200
     14 N4           1.3500     0.0010     2.3530 nb         1 73R      -0.725000
     15 N6          -0.6450    -0.0050     1.1760 nb         1 73R      -0.685000
     16 N7           3.4620    -0.0000     1.3150 nu         1 73R      -0.456900
     17 N16          5.5830     1.5630     3.5890 n          1 73R      -0.129800
     18 C26          6.1160     2.8140     4.1360 c3         1 73R       0.054700
     19 C27          6.0680     3.9010     3.0610 c3         1 73R      -0.019400
     20 C28          4.6190     4.1160     2.6170 c3         1 73R      -0.182400
     21 C29          3.7760     4.5470     3.8170 c3         1 73R       0.165500
     22 C30          3.8240     3.4590     4.8910 c3         1 73R      -0.136400
     23 C31          5.2710     3.2450     5.3360 c3         1 73R      -0.051700
     24 C35          5.3190     2.1570     6.4110 c3         1 73R      -0.029400
     25 C36          4.5790     2.6410     7.6590 c3         1 73R      -0.035400
     26 C37          4.6270     1.5520     8.7340 c3         1 73R       0.005900
     27 N38          2.3850     4.7530     3.3900 n3         1 73R      -0.522600
     28 C39          1.9060     3.6160     2.5920 c3         1 73R       0.112100
     29 C40          2.2420     6.0130     2.6480 c3         1 73R       0.120500
     30 C41          0.7850     6.1910     2.2210 c3         1 73R      -0.005100
     31 C42          2.6590     7.1820     3.5440 c3         1 73R      -0.005100
     32 F32          2.9610    -1.1440    -3.7750 f          1 73R      -0.207967
     33 F33          1.2420    -0.0010    -4.7550 f          1 73R      -0.207967
     34 F34          2.9610     1.1400    -3.7760 f          1 73R      -0.207967
     35 H1          -0.5250     0.0010     3.2340 h5         1 73R      -0.002900
     36 H2          -1.7690    -0.0010    -1.2400 ha         1 73R       0.128000
     37 H3          -0.5120    -0.0010    -3.3340 ha         1 73R       0.122000
     38 H4           3.1930    -0.0010    -1.2250 ha         1 73R       0.107000
     39 H5           3.5650    -0.5710     3.3410 h1         1 73R       0.084700
     40 H6           7.3410     0.5050     3.1260 h1         1 73R       0.023700
     41 H7           6.3810    -0.1750     4.4630 h1         1 73R       0.023700
     42 H8           5.5940    -1.6100     2.7870 hc         1 73R       0.032700
     43 H9           5.9460    -0.4320     1.4860 hc         1 73R       0.032700
     44 H10          4.0030    -0.0280     0.4730 hn         1 73R       0.301800
     45 H11          7.1410     2.6670     4.4520 h1         1 73R       0.030700
     46 H12          6.4600     4.8260     3.4680 hc         1 73R       0.015200
     47 H13          6.6630     3.5930     2.2110 hc         1 73R       0.015200
     48 H14          4.2260     3.1900     2.2140 hc         1 73R       0.072200
     49 H15          4.5870     4.8880     1.8580 hc         1 73R       0.072200
     50 H16          4.1740     5.4700     4.2220 h1         1 73R       0.030700
     51 H17          3.4320     2.5340     4.4850 hc         1 73R       0.077200
     52 H18          3.2280     3.7670     5.7420 hc         1 73R       0.077200
     53 H19          5.6640     4.1720     5.7370 hc         1 73R       0.036700
     54 H20          6.3500     1.9430     6.6630 hc         1 73R       0.012200
     55 H21          4.8440     1.2580     6.0360 hc         1 73R       0.012200
     56 H22          5.0530     3.5400     8.0340 hc         1 73R       0.021200
     57 H23          3.5470     2.8550     7.4080 hc         1 73R       0.021200
     58 H24          4.1210     1.9030     9.6260 hc         1 73R      -0.000300
     59 H25          4.1350     0.6600     8.3670 hc         1 73R      -0.000300
     60 H26          5.6590     1.3240     8.9710 hc         1 73R      -0.000300
     61 H28          1.8790     2.7270     3.2100 h1         1 73R       0.028033
     62 H29          2.5760     3.4540     1.7560 h1         1 73R       0.028033
     63 H30          0.9110     3.8290     2.2210 h1         1 73R       0.028033
     64 H31          2.8760     5.9890     1.7700 h1         1 73R       0.006700
     65 H32          0.6020     7.2320     1.9830 hc         1 73R       0.007367
     66 H33          0.5870     5.5810     1.3470 hc         1 73R       0.007367
     67 H34          0.1310     5.8860     3.0290 hc         1 73R       0.007367
     68 H35          2.1280     8.0760     3.2410 hc         1 73R       0.007367
     69 H36          3.7250     7.3460     3.4510 hc         1 73R       0.007367
     70 H37          2.4170     6.9500     4.5750 hc         1 73R       0.007367
     71 O24          3.4980     2.2920     3.0710 o          1 73R      -0.581500
@<TRIPOS>BOND
     1     1     2 ar  
     2     1     5 ar  
     3     1    15 ar  
     4     2     3 ar  
     5     2     8 ar  
     6     3    14 ar  
     7     3    16 1   
     8     4    14 ar  
     9     4    15 ar  
    10     4    35 1   
    11     5     6 ar  
    12     5    36 1   
    13     6     7 ar  
    14     6    37 1   
    15     7     8 ar  
    16     7    13 1   
    17     8    38 1   
    18     9    10 1   
    19     9    12 1   
    20     9    16 1   
    21     9    39 1   
    22    10    17 1   
    23    10    71 2   
    24    11    12 1   
    25    11    17 1   
    26    11    40 1   
    27    11    41 1   
    28    12    42 1   
    29    12    43 1   
    30    13    32 1   
    31    13    33 1   
    32    13    34 1   
    33    16    44 1   
    34    17    18 1   
    35    18    19 1   
    36    18    23 1   
    37    18    45 1   
    38    19    20 1   
    39    19    46 1   
    40    19    47 1   
    41    20    21 1   
    42    20    48 1   
    43    20    49 1   
    44    21    22 1   
    45    21    27 1   
    46    21    50 1   
    47    22    23 1   
    48    22    51 1   
    49    22    52 1   
    50    23    24 1   
    51    23    53 1   
    52    24    25 1   
    53    24    54 1   
    54    24    55 1   
    55    25    26 1   
    56    25    56 1   
    57    25    57 1   
    58    26    58 1   
    59    26    59 1   
    60    26    60 1   
    61    27    28 1   
    62    27    29 1   
    63    28    61 1   
    64    28    62 1   
    65    28    63 1   
    66    29    30 1   
    67    29    31 1   
    68    29    64 1   
    69    30    65 1   
    70    30    66 1   
    71    30    67 1   
    72    31    68 1   
    73    31    69 1   
    74    31    70 1   
@<TRIPOS>SUBSTRUCTURE
     1 73R         1 TEMP              0 ****  ****    0 ROOT
