@<TRIPOS>MOLECULE
molecule
   49    54     1     0     0
SMALL
bcc


@<TRIPOS>ATOM
      1 C4           0.0000     0.0000     0.0000 ca         1 73S       0.468200
      2 C5           1.3900     0.0000     0.0000 ca         1 73S      -0.191200
      3 C6           2.0540     0.0000     1.2280 ca         1 73S       0.425800
      4 N1           1.3360     0.0020     2.3490 nb         1 73S      -0.732000
      5 C7           3.5370    -0.0010     1.2830 c          1 73S       0.567600
      6 C12          7.3360    -3.8840     2.8700 ca         1 73S      -0.136000
      7 N3          -0.6440     0.0070     1.1530 nb         1 73S      -0.723000
      8 C13          6.6310    -3.6350     1.7060 ca         1 73S      -0.117000
      9 C14          6.0390    -2.4000     1.5040 ca         1 73S      -0.104000
     10 O8           4.1830    -0.0020     0.2540 o          1 73S      -0.588100
     11 C15          7.4550    -2.9050     3.8340 ca         1 73S      -0.096000
     12 C2           0.0140     0.0030     2.3040 ca         1 73S       0.927900
     13 N9           4.1670    -0.0000     2.4740 ns         1 73S      -0.549900
     14 Cl           2.2790    -0.0020    -1.4910 cl         1 73S      -0.038400
     15 N11         -0.7000     0.0040     3.4900 nv         1 73S      -1.058500
     16 C16          6.8650    -1.6550     3.6350 cp         1 73S      -0.058000
     17 C17          6.1520    -1.4160     2.4620 ca         1 73S      -0.100300
     18 C18          5.6310    -0.0010     2.5280 c3         1 73S       0.218300
     19 C19          6.8340    -0.4420     4.4870 cp         1 73S       0.033000
     20 C20          6.1030     0.5550     3.8500 ca         1 73S      -0.120300
     21 C21          5.9320     1.7860     4.4500 ca         1 73S      -0.079000
     22 C22          6.4830     2.0390     5.6960 ca         1 73S      -0.135000
     23 C23          7.2070     1.0630     6.3480 ca         1 73S      -0.106000
     24 C24          7.3910    -0.1850     5.7540 ca         1 73S      -0.102900
     25 C25          8.1600    -1.2340     6.4540 cc         1 73S       0.483400
     26 N26          9.1950    -1.0050     7.3240 na         1 73S      -0.253300
     27 N27          7.9530    -2.5240     6.3410 nd         1 73S      -0.582100
     28 C28          8.8350    -3.1950     7.1180 ca         1 73S      -0.041900
     29 C29          9.6410    -2.2310     7.7570 ca         1 73S      -0.067200
     30 C30         10.6400    -2.6650     8.6220 ca         1 73S      -0.252300
     31 C31         10.8030    -4.0200     8.8210 ca         1 73S       0.426200
     32 N32         10.0310    -4.9020     8.2090 nb         1 73S      -0.697000
     33 C33          9.0710    -4.5460     7.3810 ca         1 73S       0.481200
     34 H1          -0.5480     0.0020    -0.9340 h4         1 73S       0.046100
     35 H3           6.5410    -4.4080     0.9530 ha         1 73S       0.131000
     36 H4           5.4870    -2.2070     0.5920 ha         1 73S       0.148000
     37 H5           8.0090    -3.1050     4.7440 ha         1 73S       0.188000
     38 H6           3.6350    -0.0170     3.3220 hn         1 73S       0.342500
     39 H7          -0.9650    -0.8620     3.9150 hn         1 73S       0.448800
     40 H8          -0.9590     0.8710     3.9170 hn         1 73S       0.448800
     41 H9           6.0400     0.5830     1.7130 h1         1 73S       0.100700
     42 H10          5.3640     2.5570     3.9440 ha         1 73S       0.140000
     43 H11          6.3420     3.0080     6.1610 ha         1 73S       0.139000
     44 H12          7.6360     1.2670     7.3220 ha         1 73S       0.128000
     45 H13          9.4650    -0.1150     7.6950 hn         1 73S       0.308700
     46 H15         11.2780    -1.9520     9.1290 ha         1 73S       0.136000
     47 H16         11.5790    -4.3680     9.4930 h4         1 73S       0.028100
     48 H17          8.4640    -5.3030     6.9020 h4         1 73S       0.036100
     49 H2           7.7970    -4.8520     3.0240 ha         1 73S       0.131000
@<TRIPOS>BOND
     1    10     5 2
     2     8     9 ar
     3     8     6 ar
     4     9    17 ar
     5     6    11 ar
     6    17    18 1
     7    17    16 ar
     8    15    12 1
     9     5     3 1
    10     5    13 1
    11     4    12 ar
    12     4     3 ar
    13    18    13 1
    14    18    20 1
    15    11    16 ar
    16    16    19 1
    17    12     7 ar
    18     3     2 ar
    19    20    19 ar
    20    20    21 ar
    21    19    24 ar
    22    27    28 1
    23    27    25 2
    24    33    28 ar
    25    33    32 ar
    26    21    22 ar
    27    28    29 ar
    28    24    25 1
    29    24    23 ar
    30     7     1 ar
    31     2     1 ar
    32     2    14 1
    33    25    26 1
    34    32    31 ar
    35    22    23 ar
    36    29    26 1
    37    29    30 ar
    38    31    30 ar
    39     1    34 1
    40     6    49 1
    41     8    35 1
    42     9    36 1
    43    11    37 1
    44    13    38 1
    45    15    39 1
    46    15    40 1
    47    18    41 1
    48    21    42 1
    49    22    43 1
    50    23    44 1
    51    26    45 1
    52    30    46 1
    53    31    47 1
    54    33    48 1
@<TRIPOS>SUBSTRUCTURE
     1 73S         1 TEMP              0 ****  ****    0 ROOT
