@<TRIPOS>MOLECULE
73S
   49    54     1     0     0
SMALL
bcc


@<TRIPOS>ATOM
      1 C4           0.0000     0.0000     0.0000 ca         1 73S       0.435200
      2 C5           1.3900     0.0000     0.0000 ca         1 73S      -0.251200
      3 C6           2.0540     0.0000     1.2280 ca         1 73S       0.357800
      4 N1           1.3360     0.0020     2.3490 nb         1 73S      -0.608000
      5 C7           3.5370    -0.0010     1.2830 c          1 73S       0.479600
      6 C12          7.3360    -3.8840     2.8700 ca         1 73S      -0.102000
      7 N3          -0.6440     0.0070     1.1530 nb         1 73S      -0.601000
      8 C13          6.6310    -3.6350     1.7060 ca         1 73S      -0.095000
      9 C14          6.0390    -2.4000     1.5040 ca         1 73S      -0.074000
     10 O8           4.1830    -0.0020     0.2540 o          1 73S      -0.648100
     11 C15          7.4550    -2.9050     3.8340 ca         1 73S      -0.107000
     12 C2           0.0140     0.0030     2.3040 ca         1 73S       0.700900
     13 N9           4.1670    -0.0000     2.4740 ns         1 73S      -0.148900
     14 Cl           2.2790    -0.0020    -1.4910 cl         1 73S       0.077600
     15 N11         -0.7000     0.0040     3.4900 nv         1 73S      -0.637500
     16 C16          6.8650    -1.6550     3.6350 cp         1 73S      -0.047000
     17 C17          6.1520    -1.4160     2.4620 ca         1 73S      -0.121300
     18 C18          5.6310    -0.0010     2.5280 c3         1 73S       0.150300
     19 C19          6.8340    -0.4420     4.4870 cp         1 73S       0.041000
     20 C20          6.1030     0.5550     3.8500 ca         1 73S      -0.136300
     21 C21          5.9320     1.7860     4.4500 ca         1 73S      -0.049000
     22 C22          6.4830     2.0390     5.6960 ca         1 73S      -0.106000
     23 C23          7.2070     1.0630     6.3480 ca         1 73S      -0.091000
     24 C24          7.3910    -0.1850     5.7540 ca         1 73S      -0.097900
     25 C25          8.1600    -1.2340     6.4540 cc         1 73S       0.274400
     26 N26          9.1950    -1.0050     7.3240 na         1 73S       0.280700
     27 N27          7.9530    -2.5240     6.3410 nd         1 73S      -0.480100
     28 C28          8.8350    -3.1950     7.1180 ca         1 73S      -0.069900
     29 C29          9.6410    -2.2310     7.7570 ca         1 73S      -0.255200
     30 C30         10.6400    -2.6650     8.6220 ca         1 73S      -0.207300
     31 C31         10.8030    -4.0200     8.8210 ca         1 73S       0.412200
     32 N32         10.0310    -4.9020     8.2090 nb         1 73S      -0.594000
     33 C33          9.0710    -4.5460     7.3810 ca         1 73S       0.471200
     34 H1          -0.5480     0.0020    -0.9340 h4         1 73S      -0.003900
     35 H3           6.5410    -4.4080     0.9530 ha         1 73S       0.102000
     36 H4           5.4870    -2.2070     0.5920 ha         1 73S       0.121000
     37 H5           8.0090    -3.1050     4.7440 ha         1 73S       0.168000
     38 H6           3.6350    -0.0170     3.3220 hn         1 73S       0.196500
     39 H7          -0.9650    -0.8620     3.9150 hn         1 73S       0.282300
     40 H8          -0.9590     0.8710     3.9170 hn         1 73S       0.282300
     41 H9           6.0400     0.5830     1.7130 h1         1 73S       0.068700
     42 H10          5.3640     2.5570     3.9440 ha         1 73S       0.107000
     43 H11          6.3420     3.0080     6.1610 ha         1 73S       0.109000
     44 H12          7.6360     1.2670     7.3220 ha         1 73S       0.098000
     45 H13          9.4650    -0.1150     7.6950 hn         1 73S       0.132700
     46 H15         11.2780    -1.9520     9.1290 ha         1 73S       0.111000
     47 H16         11.5790    -4.3680     9.4930 h4         1 73S      -0.018900
     48 H17          8.4640    -5.3030     6.9020 h4         1 73S      -0.012900
     49 H2           7.7970    -4.8520     3.0240 ha         1 73S       0.102000
@<TRIPOS>BOND
     1     1     2 ar  
     2     1     7 ar  
     3     1    34 1   
     4     2     3 ar  
     5     2    14 1   
     6     3     4 ar  
     7     3     5 1   
     8     4    12 ar  
     9     5    10 2   
    10     5    13 1   
    11     6     8 ar  
    12     6    11 ar  
    13     6    49 1   
    14     7    12 ar  
    15     8     9 ar  
    16     8    35 1   
    17     9    17 ar  
    18     9    36 1   
    19    11    16 ar  
    20    11    37 1   
    21    12    15 1   
    22    13    18 1   
    23    13    38 1   
    24    15    39 1   
    25    15    40 1   
    26    16    17 ar  
    27    16    19 1   
    28    17    18 1   
    29    18    20 1   
    30    18    41 1   
    31    19    20 ar  
    32    19    24 ar  
    33    20    21 ar  
    34    21    22 ar  
    35    21    42 1   
    36    22    23 ar  
    37    22    43 1   
    38    23    24 ar  
    39    23    44 1   
    40    24    25 1   
    41    25    26 1   
    42    25    27 2   
    43    26    29 1   
    44    26    45 1   
    45    27    28 1   
    46    28    29 ar  
    47    28    33 ar  
    48    29    30 ar  
    49    30    31 ar  
    50    30    46 1   
    51    31    32 ar  
    52    31    47 1   
    53    32    33 ar  
    54    33    48 1   
@<TRIPOS>SUBSTRUCTURE
     1 73S         1 TEMP              0 ****  ****    0 ROOT
