@<TRIPOS>MOLECULE
molecule
   73    78     1     0     0
SMALL
bcc


@<TRIPOS>ATOM
      1 C13          0.0000     0.0000     0.0000 c3         1 73T      -0.013200
      2 C18         -3.0970    -0.4580    -0.7510 cp         1 73T      -0.090000
      3 C15         -2.8200    -4.4100     3.4170 c          1 73T       0.513700
      4 C19         -2.8150    -0.8120    -2.0710 ca         1 73T      -0.086000
      5 C20         -2.8910     0.1360    -3.0710 ca         1 73T      -0.125000
      6 C21         -3.2450     1.4380    -2.7700 ca         1 73T      -0.070000
      7 C22         -3.5280     1.8000    -1.4590 ca         1 73T       0.058600
      8 C23         -3.4610     0.8530    -0.4480 ca         1 73T      -0.024300
      9 C11          2.0410     0.0000     1.4450 c3         1 73T      -0.050700
     10 C12          1.5340     0.0000     0.0000 c3         1 73T      -0.077400
     11 C34         -2.4140     6.3770    -0.1870 ca         1 73T      -0.039000
     12 C33         -2.8460     7.6570     0.0920 ca         1 73T      -0.146000
     13 C1          -1.7360    -2.6430     2.0300 ca         1 73T       0.024800
     14 C2          -1.8070    -1.6780     1.0110 ca         1 73T      -0.074800
     15 C3          -3.0170    -1.4740     0.3230 cp         1 73T       0.089000
     16 C4          -4.1390    -2.2280     0.6560 ca         1 73T       0.100900
     17 C5          -4.0700    -3.1770     1.6590 ca         1 73T      -0.165000
     18 C6          -2.8800    -3.3940     2.3510 ca         1 73T      -0.203600
     19 N7          -0.4520    -2.6290     2.5210 na         1 73T      -0.149400
     20 C8           0.2900    -1.6940     1.8560 cc         1 73T      -0.042300
     21 C9          -0.4770    -1.0870     0.9290 cd         1 73T      -0.107400
     22 C10          1.7450    -1.3590     2.0910 c3         1 73T      -0.018200
     23 C14          3.5500     0.2510     1.4560 c3         1 73T       0.153800
     24 O16         -1.7820    -4.6000     4.0200 o          1 73T      -0.474100
     25 N17         -3.9180    -5.1290     3.7250 nz         1 73T      -0.673400
     26 O24          3.8180     1.5640     0.9600 oh         1 73T      -0.597800
     27 N25         -3.8920     3.1200    -1.1590 n          1 73T      -0.390600
     28 C26         -5.1880     3.4690    -1.1960 c          1 73T       0.814500
     29 N27         -5.6140     4.7140    -0.9220 n          1 73T      -0.357000
     30 C28         -4.7120     5.7120    -0.5800 ca         1 73T       0.066600
     31 C29         -3.3430     5.3960    -0.5270 ca         1 73T      -0.194600
     32 C30         -2.9330     4.0150    -0.8380 c          1 73T       0.719100
     33 C31         -5.1280     7.0070    -0.3020 ca         1 73T       0.080900
     34 C32         -4.1950     7.9700     0.0340 ca         1 73T      -0.096000
     35 F35         -6.4400     7.3240    -0.3610 f          1 73T      -0.133900
     36 O36         -6.0100     2.6250    -1.4920 o          1 73T      -0.642500
     37 O37         -1.7620     3.6900    -0.8060 o          1 73T      -0.596500
     38 F38         -5.3010    -2.0310    -0.0040 f          1 73T      -0.107900
     39 C39          4.0780     0.1270     2.8870 c3         1 73T      -0.124100
     40 C40          4.2460    -0.7810     0.5650 c3         1 73T      -0.124100
     41 C41         -3.7670     1.2440     0.9740 c3         1 73T      -0.055800
     42 C42         -7.0450     5.0210    -0.9840 c3         1 73T       0.091300
     43 H50         -0.3630     0.9600     0.3470 hc         1 73T       0.071700
     44 H51         -0.3630    -0.1930    -1.0020 hc         1 73T       0.071700
     45 H54         -2.5760    -1.8390    -2.3160 ha         1 73T       0.138000
     46 H55         -2.6780    -0.1420    -4.0960 ha         1 73T       0.149000
     47 H56         -3.3050     2.1770    -3.5600 ha         1 73T       0.153000
     48 H47          1.5370     0.7800     2.0020 hc         1 73T       0.075700
     49 H49          1.8950     0.8860    -0.5080 hc         1 73T       0.064700
     50 H48          1.8950    -0.8860    -0.5080 hc         1 73T       0.064700
     51 H43         -5.0510    -3.6370     1.6560 ha         1 73T       0.153000
     52 H44         -0.1120    -3.2160     3.2560 hn         1 73T       0.319700
     53 H46          2.3710    -2.1200     1.6400 hc         1 73T       0.066200
     54 H45          1.9380    -1.3040     3.1550 hc         1 73T       0.066200
     55 H53         -3.7060    -5.7570     4.4750 hn         1 73T       0.475133
     56 H52         -4.2080    -5.6540     2.9240 hn         1 73T       0.475133
     57 H57          4.7220     1.7820     1.1190 ho         1 73T       0.412000
     58 H58         -4.5210     8.9790     0.2550 ha         1 73T       0.159000
     59 H61          5.0660     0.5670     2.9470 hc         1 73T       0.044700
     60 H62          4.1310    -0.9190     3.1630 hc         1 73T       0.044700
     61 H63          3.4100     0.6460     3.5640 hc         1 73T       0.044700
     62 H64          5.3200    -0.6620     0.6450 hc         1 73T       0.044700
     63 H65          3.9410    -0.6340    -0.4640 hc         1 73T       0.044700
     64 H66          3.9690    -1.7790     0.8840 hc         1 73T       0.044700
     65 H68         -3.1120     2.0520     1.2760 hc         1 73T       0.052700
     66 H69         -4.7980     1.5680     1.0460 hc         1 73T       0.052700
     67 H67         -3.6110     0.3910     1.6240 hc         1 73T       0.052700
     68 H70         -7.5950     4.1270    -1.2520 h1         1 73T       0.067700
     69 H71         -7.3810     5.3750    -0.0160 h1         1 73T       0.067700
     70 H72         -7.2180     5.7880    -1.7290 h1         1 73T       0.067700
     71 H60         -1.3590     6.1350    -0.1400 ha         1 73T       0.165000
     72 H173        -4.6540    -4.5120     4.0050 hn         1 73T       0.475133
     73 H59         -2.1260     8.4220     0.3570 ha         1 73T       0.153000
@<TRIPOS>BOND
     1    40    23 1
     2    12    34 ar
     3    12    11 ar
     4    26    23 1
     5    34    33 ar
     6    23    39 1
     7    23     9 1
     8    11    31 ar
     9    10     9 1
    10    10     1 1
    11     9    22 1
    12    33    35 1
    13    33    30 ar
    14    31    32 1
    15    31    30 ar
    16    37    32 2
    17    22    20 1
    18    32    27 1
    19    30    29 1
    20     1    21 1
    21    20    21 2
    22    20    19 1
    23    21    14 1
    24    27     7 1
    25    27    28 1
    26    19    13 1
    27    29    28 1
    28    29    42 1
    29    41     8 1
    30    14    13 ar
    31    14    15 ar
    32     7     8 ar
    33     7     6 ar
    34    28    36 2
    35     8     2 ar
    36    13    18 ar
    37     6     5 ar
    38     2    15 1
    39     2     4 ar
    40    24     3 2
    41    15    16 ar
    42    18     3 1
    43    18    17 ar
    44     3    25 1
    45     5     4 ar
    46    16    17 ar
    47    16    38 1
    48     1    43 1
    49     1    44 1
    50     4    45 1
    51     5    46 1
    52     6    47 1
    53     9    48 1
    54    10    49 1
    55    10    50 1
    56    11    71 1
    57    12    73 1
    58    17    51 1
    59    19    52 1
    60    22    53 1
    61    22    54 1
    62    25    55 1
    63    25    56 1
    64    26    57 1
    65    34    58 1
    66    39    59 1
    67    39    60 1
    68    39    61 1
    69    40    62 1
    70    40    63 1
    71    40    64 1
    72    41    65 1
    73    41    66 1
    74    41    67 1
    75    42    68 1
    76    42    69 1
    77    42    70 1
    78    72    25 1
@<TRIPOS>SUBSTRUCTURE
     1 73T         1 TEMP              0 ****  ****    0 ROOT
