@<TRIPOS>MOLECULE
73U
   40    42     1     0     0
SMALL
bcc


@<TRIPOS>ATOM
      1 C10          0.0000     0.0000     0.0000 ca         1 73U      -0.188500
      2 C13         -2.8130    -0.0170     4.8940 ca         1 73U       0.084600
      3 C15         -2.8590    -0.0140     7.4020 c3         1 73U       0.046200
      4 C17         -0.0380    -0.0040     4.8940 ca         1 73U      -0.095000
      5 C20         -6.5420    -0.7620     4.8460 c          1 73U       0.647500
      6 C02          3.5520     0.0020    -1.2100 c3         1 73U       0.200100
      7 N04          2.0870     0.0010    -1.2100 nu         1 73U      -0.424600
      8 C05          1.3910     0.0000     0.0000 ca         1 73U       0.070600
      9 C06          2.0870     0.0000     1.2030 ca         1 73U      -0.188500
     10 C07          1.4000    -0.0010     2.3980 ca         1 73U      -0.041500
     11 C08          0.0070    -0.0010     2.4000 cp         1 73U      -0.104000
     12 C09         -0.6910    -0.0010     1.1930 ca         1 73U      -0.041500
     13 C11         -0.7350    -0.0030     3.6850 cp         1 73U      -0.009000
     14 C12         -2.1260    -0.0100     3.6880 ca         1 73U      -0.097000
     15 C14         -2.1120    -0.0130     6.0930 ca         1 73U      -0.084300
     16 C16         -0.7290    -0.0060     6.0890 ca         1 73U      -0.093000
     17 N18         -4.2100    -0.0230     4.9020 nh         1 73U      -0.362900
     18 C19         -5.1080    -1.1810     4.8020 c3         1 73U       0.107800
     19 N22         -6.7380     0.5590     4.9720 ns         1 73U      -0.283300
     20 S23         -5.2410     1.2830     5.0270 s6         1 73U       1.105500
     21 O24         -5.0830     1.8180     6.3340 o          1 73U      -0.564800
     22 O25         -5.0980     2.0450     3.8360 o          1 73U      -0.564800
     23 H1          -0.5410    -0.0000    -0.9390 ha         1 73U       0.112000
     24 H2          -3.6780    -0.7200     7.3490 hc         1 73U       0.018367
     25 H3          -2.1860    -0.3010     8.2010 hc         1 73U       0.018367
     26 H4          -3.2480     0.9780     7.5960 hc         1 73U       0.018367
     27 H5           1.0450     0.0010     4.8940 ha         1 73U       0.113000
     28 H6           3.9130     0.8850    -0.6970 h1         1 73U       0.004033
     29 H7           3.9140    -0.8840    -0.7010 h1         1 73U       0.004033
     30 H8           3.9130     0.0040    -2.2310 h1         1 73U       0.004033
     31 H9           1.5870    -0.0480    -2.0750 hn         1 73U       0.290800
     32 H10          3.1700    -0.0000     1.2010 ha         1 73U       0.112000
     33 H11          1.9440    -0.0010     3.3360 ha         1 73U       0.107000
     34 H12         -1.7740    -0.0010     1.1920 ha         1 73U       0.107000
     35 H13         -2.6720    -0.0120     2.7520 ha         1 73U       0.123000
     36 H14         -0.1860    -0.0040     7.0260 ha         1 73U       0.109000
     37 H15         -4.9190    -1.6950     3.8680 h1         1 73U       0.050200
     38 H16         -4.9110    -1.8530     5.6290 h1         1 73U       0.050200
     39 H17         -7.6230     1.0230     5.0220 hn         1 73U       0.261500
     40 O21         -7.4570    -1.5550     4.7800 o          1 73U      -0.620500
@<TRIPOS>BOND
     1     1     8 ar  
     2     1    12 ar  
     3     1    23 1   
     4     2    14 ar  
     5     2    15 ar  
     6     2    17 1   
     7     3    15 1   
     8     3    24 1   
     9     3    25 1   
    10     3    26 1   
    11     4    13 ar  
    12     4    16 ar  
    13     4    27 1   
    14     5    18 1   
    15     5    19 1   
    16     5    40 2   
    17     6     7 1   
    18     6    28 1   
    19     6    29 1   
    20     6    30 1   
    21     7     8 1   
    22     7    31 1   
    23     8     9 ar  
    24     9    10 ar  
    25     9    32 1   
    26    10    11 ar  
    27    10    33 1   
    28    11    12 ar  
    29    11    13 1   
    30    12    34 1   
    31    13    14 ar  
    32    14    35 1   
    33    15    16 ar  
    34    16    36 1   
    35    17    18 1   
    36    17    20 1   
    37    18    37 1   
    38    18    38 1   
    39    19    20 1   
    40    19    39 1   
    41    20    21 2   
    42    20    22 2   
@<TRIPOS>SUBSTRUCTURE
     1 73U         1 TEMP              0 ****  ****    0 ROOT
