@<TRIPOS>MOLECULE
molecule
   40    42     1     0     0
SMALL
bcc


@<TRIPOS>ATOM
      1 C10          0.0000     0.0000     0.0000 ca         1 73U      -0.207500
      2 C13         -2.8130    -0.0170     4.8940 ca         1 73U       0.154600
      3 C15         -2.8590    -0.0140     7.4020 c3         1 73U      -0.053800
      4 C17         -0.0380    -0.0040     4.8940 ca         1 73U      -0.114000
      5 C20         -6.5420    -0.7620     4.8460 c          1 73U       0.682500
      6 C02          3.5520     0.0020    -1.2100 c3         1 73U       0.226100
      7 N04          2.0870     0.0010    -1.2100 nu         1 73U      -0.826600
      8 C05          1.3910     0.0000     0.0000 ca         1 73U       0.209600
      9 C06          2.0870     0.0000     1.2030 ca         1 73U      -0.207500
     10 C07          1.4000    -0.0010     2.3980 ca         1 73U      -0.067500
     11 C08          0.0070    -0.0010     2.4000 cp         1 73U      -0.103000
     12 C09         -0.6910    -0.0010     1.1930 ca         1 73U      -0.067500
     13 C11         -0.7350    -0.0030     3.6850 cp         1 73U      -0.017000
     14 C12         -2.1260    -0.0100     3.6880 ca         1 73U      -0.113000
     15 C14         -2.1120    -0.0130     6.0930 ca         1 73U      -0.075300
     16 C16         -0.7290    -0.0060     6.0890 ca         1 73U      -0.123000
     17 N18         -4.2100    -0.0230     4.9020 nh         1 73U      -0.688900
     18 C19         -5.1080    -1.1810     4.8020 c3         1 73U       0.106800
     19 N22         -6.7380     0.5590     4.9720 ns         1 73U      -0.653300
     20 S23         -5.2410     1.2830     5.0270 s6         1 73U       1.520500
     21 O24         -5.0830     1.8180     6.3340 o          1 73U      -0.616800
     22 O25         -5.0980     2.0450     3.8360 o          1 73U      -0.616800
     23 H1          -0.5410    -0.0000    -0.9390 ha         1 73U       0.132000
     24 H2          -3.6780    -0.7200     7.3490 hc         1 73U       0.052700
     25 H3          -2.1860    -0.3010     8.2010 hc         1 73U       0.052700
     26 H4          -3.2480     0.9780     7.5960 hc         1 73U       0.052700
     27 H5           1.0450     0.0010     4.8940 ha         1 73U       0.137000
     28 H6           3.9130     0.8850    -0.6970 h1         1 73U       0.035033
     29 H7           3.9140    -0.8840    -0.7010 h1         1 73U       0.035033
     30 H8           3.9130     0.0040    -2.2310 h1         1 73U       0.035033
     31 H9           1.5870    -0.0480    -2.0750 hn         1 73U       0.438800
     32 H10          3.1700    -0.0000     1.2010 ha         1 73U       0.132000
     33 H11          1.9440    -0.0010     3.3360 ha         1 73U       0.132500
     34 H12         -1.7740    -0.0010     1.1920 ha         1 73U       0.132500
     35 H13         -2.6720    -0.0120     2.7520 ha         1 73U       0.146000
     36 H14         -0.1860    -0.0040     7.0260 ha         1 73U       0.138000
     37 H15         -4.9190    -1.6950     3.8680 h1         1 73U       0.095200
     38 H16         -4.9110    -1.8530     5.6290 h1         1 73U       0.095200
     39 H17         -7.6230     1.0230     5.0220 hn         1 73U       0.377500
     40 O21         -7.4570    -1.5550     4.7800 o          1 73U      -0.567500
@<TRIPOS>BOND
     1     1    12 ar  
     2     1     8 ar  
     3     4    16 ar  
     4     4    13 ar  
     5    12    11 ar  
     6    16    15 ar  
     7     7     8 1   
     8     7     6 1   
     9     8     9 ar  
    10    11    13 1   
    11    11    10 ar  
    12    13    14 ar  
    13     9    10 ar  
    14    15     3 1   
    15    15     2 ar  
    16    14     2 ar  
    17     2    17 1   
    18    18    17 1   
    19    18     5 1   
    20    17    20 1   
    21     5    40 2   
    22     5    19 1   
    23    21    20 2   
    24    20    19 1   
    25    20    22 2   
    26     1    23 1   
    27     3    24 1   
    28     3    25 1   
    29     3    26 1   
    30     4    27 1   
    31     6    28 1   
    32     6    29 1   
    33     6    30 1   
    34     7    31 1   
    35     9    32 1   
    36    10    33 1   
    37    12    34 1   
    38    14    35 1   
    39    16    36 1   
    40    18    37 1   
    41    18    38 1   
    42    19    39 1   
@<TRIPOS>SUBSTRUCTURE
     1 73U         1 TEMP              0 ****  ****    0 ROOT
