@<TRIPOS>MOLECULE
molecule
   69    71     1     0     0
SMALL
bcc


@<TRIPOS>ATOM
      1 C19          0.0000     0.0000     0.0000 c3         1 73V      -0.088100
      2 C18          1.5290     0.0000     0.0000 c3         1 73V      -0.103400
      3 C17          2.0390     0.0000     1.4430 c3         1 73V       0.112000
      4 N3           3.5040     0.0000     1.4440 ns         1 73V      -0.585900
      5 C10          7.5650     3.8510    -7.4190 ca         1 73V      -0.100300
      6 C15          6.8560     5.0090    -7.1580 ca         1 73V      -0.103500
      7 C14          6.9210     6.0730    -8.0380 ca         1 73V      -0.132500
      8 C13          7.6890     5.9770    -9.1830 ca         1 73V      -0.116000
      9 C12          8.3940     4.8180    -9.4460 ca         1 73V      -0.132500
     10 C11          8.3320     3.7550    -8.5640 ca         1 73V      -0.103500
     11 C9           7.4970     2.6920    -6.4580 c3         1 73V       0.205700
     12 O1           6.3710    -1.1510     3.3600 op         1 73V      -0.305600
     13 C3           6.3080    -1.4600     1.9640 cx         1 73V      -0.023900
     14 C4           7.5790    -1.3430     1.1620 c          1 73V       0.673100
     15 O4           8.6110    -1.8160     1.5880 o          1 73V      -0.581100
     16 C2           5.7120    -0.1770     2.5470 cx         1 73V      -0.026900
     17 C16          4.1780     0.0010     2.6110 c          1 73V       0.671100
     18 O2           3.5710     0.0000     3.6610 o          1 73V      -0.568100
     19 N1           7.5680    -0.7140    -0.0290 ns         1 73V      -0.562900
     20 C5           8.8020    -0.6000    -0.8100 c3         1 73V       0.056700
     21 C6           8.7130     0.5970    -1.7220 c          1 73V       0.685100
     22 O5           7.7140     1.2860    -1.7210 o          1 73V      -0.605100
     23 C20          8.9950    -1.8650    -1.6470 c3         1 73V      -0.090700
     24 C22          7.8060    -2.0370    -2.5950 c3         1 73V      -0.090400
     25 C21          9.0860    -3.0810    -0.7200 c3         1 73V      -0.101100
     26 C23          8.0570    -3.2310    -3.5170 c3         1 73V      -0.087100
     27 N2           9.7400     0.8990    -2.5400 n          1 73V      -0.478800
     28 C7           9.7820     2.0280    -3.4810 c3         1 73V       0.075700
     29 C8           8.6860     1.8950    -4.5060 c          1 73V       0.628100
     30 O7           8.5520     2.8210    -5.4700 os         1 73V      -0.436900
     31 O6           7.9280     0.9560    -4.4610 o          1 73V      -0.534000
     32 C26         11.1600     1.9930    -4.1770 c3         1 73V      -0.083400
     33 C25         12.0300     1.1760    -3.1860 c3         1 73V      -0.099400
     34 C24         11.0050     0.1500    -2.6430 c3         1 73V       0.090000
     35 H191        -0.3610     0.8850     0.5100 hc         1 73V       0.039033
     36 H192        -0.3610    -0.8840     0.5110 hc         1 73V       0.039033
     37 H193        -0.3610    -0.0000    -1.0210 hc         1 73V       0.039033
     38 H181         1.8900    -0.8850    -0.5110 hc         1 73V       0.045700
     39 H182         1.8900     0.8850    -0.5110 hc         1 73V       0.045700
     40 H171         1.6780     0.8840     1.9540 h1         1 73V       0.056200
     41 H172         1.6780    -0.8850     1.9530 h1         1 73V       0.056200
     42 HN3          4.0050     0.0290     0.5770 hn         1 73V       0.314500
     43 H15          6.2540     5.0840    -6.2600 ha         1 73V       0.133500
     44 H14          6.3670     6.9810    -7.8320 ha         1 73V       0.132500
     45 H13          7.7390     6.8100    -9.8730 ha         1 73V       0.131000
     46 H12          8.9960     4.7430   -10.3440 ha         1 73V       0.132500
     47 H11          8.8870     2.8470    -8.7710 ha         1 73V       0.133500
     48 H91          6.5340     2.6920    -5.9600 h1         1 73V       0.054700
     49 H92          7.6220     1.7640    -7.0010 h1         1 73V       0.054700
     50 H3           5.5830    -2.2200     1.6990 h1         1 73V       0.117700
     51 H2           6.2870     0.7210     2.3550 h1         1 73V       0.110700
     52 HN1          6.7220    -0.2990    -0.3680 hn         1 73V       0.334500
     53 H5           9.6440    -0.4790    -0.1380 h1         1 73V       0.093700
     54 H20          9.9080    -1.7820    -2.2230 hc         1 73V       0.057700
     55 H221         7.6870    -1.1390    -3.1900 hc         1 73V       0.055200
     56 H222         6.9060    -2.2090    -2.0180 hc         1 73V       0.055200
     57 H211         9.5650    -2.7920     0.2080 hc         1 73V       0.048367
     58 H212         9.6690    -3.8580    -1.2000 hc         1 73V       0.048367
     59 H213         8.0900    -3.4520    -0.5130 hc         1 73V       0.048367
     60 H231         9.1150    -3.3030    -3.7340 hc         1 73V       0.032700
     61 H232         7.5070    -3.0950    -4.4410 hc         1 73V       0.032700
     62 H233         7.7250    -4.1390    -3.0300 hc         1 73V       0.032700
     63 H7           9.6720     2.9590    -2.9380 h1         1 73V       0.091700
     64 H261        11.0920     1.4870    -5.1320 hc         1 73V       0.067200
     65 H262        11.5530     2.9960    -4.2930 hc         1 73V       0.067200
     66 H251        12.8390     0.6760    -3.7050 hc         1 73V       0.062700
     67 H252        12.4030     1.8080    -2.3890 hc         1 73V       0.062700
     68 H241        11.3120    -0.2060    -1.6670 h1         1 73V       0.057700
     69 H242        10.8980    -0.6750    -3.3360 h1         1 73V       0.057700
@<TRIPOS>BOND
     1     1     2 1   
     2     1    35 1   
     3     1    36 1   
     4     1    37 1   
     5     2     3 1   
     6     2    38 1   
     7     2    39 1   
     8     3     4 1   
     9     3    40 1   
    10     3    41 1   
    11     4    17 1   
    12     4    42 1   
    13     5     6 ar  
    14     5    10 ar  
    15     5    11 1   
    16     6     7 ar  
    17     6    43 1   
    18     7     8 ar  
    19     7    44 1   
    20     8     9 ar  
    21     8    45 1   
    22     9    10 ar  
    23     9    46 1   
    24    10    47 1   
    25    11    30 1   
    26    11    48 1   
    27    11    49 1   
    28    12    13 1   
    29    12    16 1   
    30    13    14 1   
    31    13    16 1   
    32    13    50 1   
    33    14    15 2   
    34    14    19 1   
    35    16    17 1   
    36    16    51 1   
    37    17    18 2   
    38    19    20 1   
    39    19    52 1   
    40    20    21 1   
    41    20    23 1   
    42    20    53 1   
    43    21    22 2   
    44    21    27 1   
    45    23    24 1   
    46    23    25 1   
    47    23    54 1   
    48    24    26 1   
    49    24    55 1   
    50    24    56 1   
    51    25    57 1   
    52    25    58 1   
    53    25    59 1   
    54    26    60 1   
    55    26    61 1   
    56    26    62 1   
    57    27    28 1   
    58    27    34 1   
    59    28    29 1   
    60    28    32 1   
    61    28    63 1   
    62    29    30 1   
    63    29    31 2   
    64    32    33 1   
    65    32    64 1   
    66    32    65 1   
    67    33    34 1   
    68    33    66 1   
    69    33    67 1   
    70    34    68 1   
    71    34    69 1   
@<TRIPOS>SUBSTRUCTURE
     1 73V         1 TEMP              0 ****  ****    0 ROOT
