@<TRIPOS>MOLECULE
73X
   38    40     1     0     0
SMALL
bcc


@<TRIPOS>ATOM
      1 C12          0.0000     0.0000     0.0000 ca         1 73X       0.729900
      2 C13          2.0030     0.0000     1.1420 ca         1 73X       0.532200
      3 C2           4.5780    -0.9300     9.8490 ca         1 73X      -0.066600
      4 C1           5.2770    -1.1490     8.6750 ca         1 73X      -0.058000
      5 C3           3.2100    -0.7170     9.8140 ca         1 73X      -0.013600
      6 Cl           2.3360    -0.4510    11.2900 cl         1 73X      -0.003400
      7 C4           2.5400    -0.7170     8.6050 ca         1 73X      -0.120000
      8 C5           3.2400    -0.9300     7.4250 ca         1 73X       0.034600
      9 C            4.6110    -1.1490     7.4640 ca         1 73X      -0.160000
     10 N            2.5670    -0.9300     6.2010 nh         1 73X      -0.360000
     11 C9           3.4950    -1.1740     5.0880 c3         1 73X       0.136300
     12 C8           2.7070    -1.2460     3.7780 c3         1 73X       0.129800
     13 N1           1.9730     0.0110     3.5810 nh         1 73X      -0.358000
     14 C7           1.0440     0.2550     4.6940 c3         1 73X       0.129800
     15 C6           1.8310     0.3260     6.0050 c3         1 73X       0.136300
     16 C10          1.2950     0.0110     2.3510 ca         1 73X      -0.297000
     17 N4           3.3910     0.0060     1.1370 nv         1 73X      -0.545500
     18 N3           1.3250     0.0000     0.0000 nb         1 73X      -0.676000
     19 N5          -0.6760    -0.0060    -1.2120 nv         1 73X      -0.630500
     20 N2          -0.6970    -0.0010     1.1250 nb         1 73X      -0.657000
     21 C11         -0.0900     0.0050     2.3040 ca         1 73X       0.427200
     22 H1           6.3460    -1.3200     8.7050 ha         1 73X       0.116000
     23 H2           1.4700    -0.5490     8.5780 ha         1 73X       0.128000
     24 H3           5.1590    -1.3180     6.5450 ha         1 73X       0.126000
     25 H4           4.0110    -2.1130     5.2490 h1         1 73X       0.026450
     26 H5           4.2130    -0.3650     5.0340 h1         1 73X       0.026450
     27 H6           3.3940    -1.3940     2.9530 h1         1 73X       0.027450
     28 H7           2.0060    -2.0700     3.8230 h1         1 73X       0.027450
     29 H8           0.5270     1.1930     4.5330 h1         1 73X       0.027450
     30 H9           0.3270    -0.5550     4.7480 h1         1 73X       0.027450
     31 H10          1.1430     0.4740     6.8290 h1         1 73X       0.026450
     32 H11          2.5320     1.1510     5.9600 h1         1 73X       0.026450
     33 H12          3.8910     0.4950     1.8530 hn         1 73X       0.278800
     34 H13          3.8910    -0.4630     0.4080 hn         1 73X       0.278800
     35 H14         -0.7660    -0.8570    -1.7300 hn         1 73X       0.278300
     36 H15         -1.0820     0.8390    -1.5630 hn         1 73X       0.278300
     37 H16         -0.6690     0.0080     3.2190 h4         1 73X      -0.003900
     38 Cl1          5.4170    -0.9290    11.3690 cl         1 73X      -0.005400
@<TRIPOS>BOND
     1     1    18 ar  
     2     1    19 1   
     3     1    20 ar  
     4     2    16 ar  
     5     2    17 1   
     6     2    18 ar  
     7     3     4 ar  
     8     3     5 ar  
     9     3    38 1   
    10     4     9 ar  
    11     4    22 1   
    12     5     6 1   
    13     5     7 ar  
    14     7     8 ar  
    15     7    23 1   
    16     8     9 ar  
    17     8    10 1   
    18     9    24 1   
    19    10    11 1   
    20    10    15 1   
    21    11    12 1   
    22    11    25 1   
    23    11    26 1   
    24    12    13 1   
    25    12    27 1   
    26    12    28 1   
    27    13    14 1   
    28    13    16 1   
    29    14    15 1   
    30    14    29 1   
    31    14    30 1   
    32    15    31 1   
    33    15    32 1   
    34    16    21 ar  
    35    17    33 1   
    36    17    34 1   
    37    19    35 1   
    38    19    36 1   
    39    20    21 ar  
    40    21    37 1   
@<TRIPOS>SUBSTRUCTURE
     1 73X         1 TEMP              0 ****  ****    0 ROOT
