@<TRIPOS>MOLECULE
73Y
   54    60     1     0     0
SMALL
bcc


@<TRIPOS>ATOM
      1 C4           0.0000     0.0000     0.0000 ca         1 73Y      -0.101000
      2 C5           1.3970     0.0000     0.0000 cp         1 73Y      -0.040000
      3 C6           2.0800     0.0000     1.2150 ca         1 73Y      -0.118300
      4 C7           3.5560    -0.0010     0.9050 c3         1 73Y       0.152300
      5 C8           2.3740    -0.0020    -1.1150 cp         1 73Y      -0.005000
      6 C9           3.6660    -0.0020    -0.6000 ca         1 73Y      -0.129300
      7 C10          4.7540    -0.0040    -1.4480 ca         1 73Y      -0.062000
      8 C11          4.5700    -0.0050    -2.8210 ca         1 73Y      -0.103000
      9 C12          3.2950    -0.0050    -3.3510 ca         1 73Y      -0.085000
     10 C13          2.1880    -0.0040    -2.5090 cq         1 73Y      -0.016000
     11 C15          0.8200    -0.0040    -3.0780 cq         1 73Y      -0.156300
     12 C1           1.3820     0.0010     2.4050 ca         1 73Y      -0.065000
     13 C2          -0.6880     0.0070     1.1960 ca         1 73Y      -0.097000
     14 C3          -0.0010     0.0020     2.3960 ca         1 73Y      -0.102000
     15 N14          4.1870    -1.2030     1.4580 ns         1 73Y      -0.160900
     16 C16          4.4990    -3.4060     3.9270 ca         1 73Y      -0.085200
     17 C17          5.1310    -4.5300     4.4300 ca         1 73Y       0.423200
     18 N18          6.4350    -4.6890     4.3300 nb         1 73Y      -0.543000
     19 C19          5.2580    -2.4200     3.2910 ca         1 73Y      -0.032600
     20 C20          6.6500    -2.6190     3.1980 ca         1 73Y      -0.019900
     21 C21          7.2070    -3.7910     3.7450 ca         1 73Y       0.179800
     22 N22          8.5630    -3.7080     3.5080 na         1 73Y       0.171000
     23 C23          8.7880    -2.5390     2.8510 cc         1 73Y       0.255700
     24 N24          7.6640    -1.9040     2.6720 nd         1 73Y      -0.506100
     25 C25          4.6220    -1.2090     2.7330 c          1 73Y       0.601700
     26 O26          4.4920    -0.2180     3.4250 o          1 73Y      -0.629100
     27 C27         -0.0750     1.0040    -2.7490 ca         1 73Y      -0.048000
     28 N28         -0.7810    -1.0480    -4.4770 nb         1 73Y      -0.566000
     29 C29          0.4200    -1.0220    -3.9590 ca         1 73Y       0.418200
     30 C30         -1.6890    -0.1070    -4.1930 ca         1 73Y       0.370600
     31 C31         -1.3600     0.9570    -3.3160 ca         1 73Y      -0.152300
     32 C32         -2.3200     1.9420    -3.0280 ca         1 73Y      -0.083000
     33 C33         -3.5540     1.8640    -3.5970 ca         1 73Y      -0.097000
     34 C34         -3.8800     0.8190    -4.4580 ca         1 73Y      -0.093000
     35 C35         -2.9740    -0.1520    -4.7580 ca         1 73Y      -0.139300
     36 H1          -0.5420     0.0040    -0.9380 ha         1 73Y       0.126000
     37 H2           4.0200     0.8900     1.3100 h1         1 73Y       0.072700
     38 H3           5.7560    -0.0030    -1.0390 ha         1 73Y       0.109000
     39 H4           5.4290    -0.0060    -3.4810 ha         1 73Y       0.107000
     40 H5           3.1570    -0.0060    -4.4260 ha         1 73Y       0.111000
     41 H6           1.9180    -0.0030     3.3460 ha         1 73Y       0.127000
     42 H7          -1.7720     0.0080     1.1950 ha         1 73Y       0.103000
     43 H8          -0.5480     0.0080     3.3310 ha         1 73Y       0.105000
     44 H9           4.2770    -2.0250     0.8950 hn         1 73Y       0.180500
     45 H10          4.5410    -5.2930     4.9230 h4         1 73Y      -0.004900
     46 H11          9.2540    -4.3830     3.7700 hn         1 73Y       0.136700
     47 H12          9.7580    -2.1860     2.5250 h5         1 73Y       0.032800
     48 H14          0.2840     1.9200    -2.2950 ha         1 73Y       0.124000
     49 H15          1.1240    -1.8050    -4.2160 h4         1 73Y      -0.016900
     50 H16         -2.0790     2.7590    -2.3590 ha         1 73Y       0.110000
     51 H17         -4.2940     2.6240    -3.3750 ha         1 73Y       0.104000
     52 H18         -4.8690     0.7790    -4.8980 ha         1 73Y       0.104000
     53 H19         -3.2430    -0.9580    -5.4300 ha         1 73Y       0.118000
     54 Br3          2.6250    -3.2110     4.0890 br         1 73Y      -0.085100
@<TRIPOS>BOND
     1     1     2 ar  
     2     1    13 ar  
     3     1    36 1   
     4     2     3 ar  
     5     2     5 1   
     6     3     4 1   
     7     3    12 ar  
     8     4     6 1   
     9     4    15 1   
    10     4    37 1   
    11     5     6 ar  
    12     5    10 2   
    13     6     7 ar  
    14     7     8 ar  
    15     7    38 1   
    16     8     9 ar  
    17     8    39 1   
    18     9    10 1   
    19     9    40 1   
    20    10    11 1   
    21    11    27 1   
    22    11    29 2   
    23    12    14 ar  
    24    12    41 1   
    25    13    14 ar  
    26    13    42 1   
    27    14    43 1   
    28    15    25 1   
    29    15    44 1   
    30    16    17 ar  
    31    16    19 ar  
    32    16    54 1   
    33    17    18 ar  
    34    17    45 1   
    35    18    21 ar  
    36    19    20 ar  
    37    19    25 1   
    38    20    21 ar  
    39    20    24 1   
    40    21    22 1   
    41    22    23 1   
    42    22    46 1   
    43    23    24 2   
    44    23    47 1   
    45    25    26 2   
    46    27    31 ar  
    47    27    48 1   
    48    28    29 ar  
    49    28    30 ar  
    50    29    49 1   
    51    30    31 ar  
    52    30    35 ar  
    53    31    32 ar  
    54    32    33 ar  
    55    32    50 1   
    56    33    34 ar  
    57    33    51 1   
    58    34    35 ar  
    59    34    52 1   
    60    35    53 1   
@<TRIPOS>SUBSTRUCTURE
     1 73Y         1 TEMP              0 ****  ****    0 ROOT
