@<TRIPOS>MOLECULE
molecule
   54    60     1     0     0
SMALL
bcc


@<TRIPOS>ATOM
      1 C4           0.0000     0.0000     0.0000 ca         1 73Y      -0.112000
      2 C5           1.3970     0.0000     0.0000 cp         1 73Y      -0.049000
      3 C6           2.0800     0.0000     1.2150 ca         1 73Y      -0.101300
      4 C7           3.5560    -0.0010     0.9050 c3         1 73Y       0.220300
      5 C8           2.3740    -0.0020    -1.1150 cp         1 73Y      -0.012000
      6 C9           3.6660    -0.0020    -0.6000 ca         1 73Y      -0.114300
      7 C10          4.7540    -0.0040    -1.4480 ca         1 73Y      -0.093000
      8 C11          4.5700    -0.0050    -2.8210 ca         1 73Y      -0.131000
      9 C12          3.2950    -0.0050    -3.3510 ca         1 73Y      -0.108000
     10 C13          2.1880    -0.0040    -2.5090 cq         1 73Y      -0.026000
     11 C15          0.8200    -0.0040    -3.0780 cq         1 73Y      -0.170300
     12 C1           1.3820     0.0010     2.4050 ca         1 73Y      -0.091000
     13 C2          -0.6880     0.0070     1.1960 ca         1 73Y      -0.126000
     14 C3          -0.0010     0.0020     2.3960 ca         1 73Y      -0.126000
     15 N14          4.1870    -1.2030     1.4580 ns         1 73Y      -0.555900
     16 C16          4.4990    -3.4060     3.9270 ca         1 73Y      -0.141200
     17 C17          5.1310    -4.5300     4.4300 ca         1 73Y       0.468200
     18 N18          6.4350    -4.6890     4.3300 nb         1 73Y      -0.685000
     19 C19          5.2580    -2.4200     3.2910 ca         1 73Y      -0.021600
     20 C20          6.6500    -2.6190     3.1980 ca         1 73Y       0.002100
     21 C21          7.2070    -3.7910     3.7450 ca         1 73Y       0.418800
     22 N22          8.5630    -3.7080     3.5080 na         1 73Y      -0.362000
     23 C23          8.7880    -2.5390     2.8510 cc         1 73Y       0.447700
     24 N24          7.6640    -1.9040     2.6720 nd         1 73Y      -0.591100
     25 C25          4.6220    -1.2090     2.7330 c          1 73Y       0.681700
     26 O26          4.4920    -0.2180     3.4250 o          1 73Y      -0.583100
     27 C27         -0.0750     1.0040    -2.7490 ca         1 73Y      -0.066000
     28 N28         -0.7810    -1.0480    -4.4770 nb         1 73Y      -0.681000
     29 C29          0.4200    -1.0220    -3.9590 ca         1 73Y       0.444200
     30 C30         -1.6890    -0.1070    -4.1930 ca         1 73Y       0.418600
     31 C31         -1.3600     0.9570    -3.3160 ca         1 73Y      -0.160300
     32 C32         -2.3200     1.9420    -3.0280 ca         1 73Y      -0.109000
     33 C33         -3.5540     1.8640    -3.5970 ca         1 73Y      -0.127000
     34 C34         -3.8800     0.8190    -4.4580 ca         1 73Y      -0.118000
     35 C35         -2.9740    -0.1520    -4.7580 ca         1 73Y      -0.164300
     36 H1          -0.5420     0.0040    -0.9380 ha         1 73Y       0.144000
     37 H2           4.0200     0.8900     1.3100 h1         1 73Y       0.103700
     38 H3           5.7560    -0.0030    -1.0390 ha         1 73Y       0.140000
     39 H4           5.4290    -0.0060    -3.4810 ha         1 73Y       0.136000
     40 H5           3.1570    -0.0060    -4.4260 ha         1 73Y       0.139000
     41 H6           1.9180    -0.0030     3.3460 ha         1 73Y       0.153000
     42 H7          -1.7720     0.0080     1.1950 ha         1 73Y       0.132000
     43 H8          -0.5480     0.0080     3.3310 ha         1 73Y       0.133000
     44 H9           4.2770    -2.0250     0.8950 hn         1 73Y       0.326500
     45 H10          4.5410    -5.2930     4.9230 h4         1 73Y       0.044100
     46 H11          9.2540    -4.3830     3.7700 hn         1 73Y       0.317700
     47 H12          9.7580    -2.1860     2.5250 h5         1 73Y       0.083800
     48 H14          0.2840     1.9200    -2.2950 ha         1 73Y       0.152000
     49 H15          1.1240    -1.8050    -4.2160 h4         1 73Y       0.028100
     50 H16         -2.0790     2.7590    -2.3590 ha         1 73Y       0.136000
     51 H17         -4.2940     2.6240    -3.3750 ha         1 73Y       0.132000
     52 H18         -4.8690     0.7790    -4.8980 ha         1 73Y       0.134000
     53 H19         -3.2430    -0.9580    -5.4300 ha         1 73Y       0.149000
     54 Br3          2.6250    -3.2110     4.0890 br         1 73Y      -0.057100
@<TRIPOS>BOND
     1    26    25 2
     2    14    12 ar
     3    14    13 ar
     4    24    23 2
     5    24    20 1
     6    12     3 ar
     7    23    22 1
     8    13     1 ar
     9     3     4 1
    10     3     2 ar
    11     4     6 1
    12     4    15 1
    13     1     2 ar
    14    25    15 1
    15    25    19 1
    16    28    29 ar
    17    28    30 ar
    18     2     5 1
    19    29    11 2
    20    20    19 ar
    21    20    21 ar
    22    22    21 1
    23     6     5 ar
    24     6     7 ar
    25     5    10 2
    26    19    16 ar
    27     7     8 ar
    28    21    18 ar
    29    35    30 ar
    30    35    34 ar
    31    10    11 1
    32    10     9 1
    33    30    31 ar
    34    11    27 1
    35     8     9 ar
    36    16    54 1
    37    16    17 ar
    38    18    17 ar
    39    34    33 ar
    40    27    31 ar
    41    31    32 ar
    42    33    32 ar
    43     1    36 1
    44     4    37 1
    45     7    38 1
    46     8    39 1
    47     9    40 1
    48    12    41 1
    49    13    42 1
    50    14    43 1
    51    15    44 1
    52    17    45 1
    53    22    46 1
    54    23    47 1
    55    27    48 1
    56    29    49 1
    57    32    50 1
    58    33    51 1
    59    34    52 1
    60    35    53 1
@<TRIPOS>SUBSTRUCTURE
     1 73Y         1 TEMP              0 ****  ****    0 ROOT
