@<TRIPOS>MOLECULE
molecule
   60    63     1     0     0
SMALL
bcc


@<TRIPOS>ATOM
      1 C4           0.0000     0.0000     0.0000 c          1 73Z       0.606700
      2 C5           1.4660     0.0000     0.0000 cc         1 73Z      -0.232600
      3 C6           2.2010     0.0000     1.1800 cd         1 73Z      -0.071600
      4 C8           3.6440    -0.0030    -0.5160 cc         1 73Z      -0.188300
      5 C9           2.4250    -0.0000    -1.0920 cd         1 73Z      -0.057300
      6 C13          2.1180     0.0010    -2.5670 c3         1 73Z      -0.020800
      7 C14          4.5570    -0.0080     1.7630 ca         1 73Z       0.132800
      8 C15          4.5760     0.9160     2.8050 ca         1 73Z      -0.172000
      9 C1          -0.6460    -0.2720     1.3510 c3         1 73Z      -0.164400
     10 C2           0.1190     0.5150     2.4200 c3         1 73Z      -0.061000
     11 C3           1.5580     0.0040     2.5420 c3         1 73Z      -0.005100
     12 N7           3.5000    -0.0040     0.8480 na         1 73Z       0.016800
     13 O10         -0.6510     0.2070    -1.0030 o          1 73Z      -0.507100
     14 C16          5.6130     0.9210     3.7100 ca         1 73Z      -0.063000
     15 C17          6.6520    -0.0070     3.5860 ca         1 73Z      -0.318600
     16 C18          6.6320    -0.9400     2.5360 ca         1 73Z       0.308600
     17 C19          5.5850    -0.9290     1.6270 ca         1 73Z      -0.232000
     18 C20          7.7620    -0.0050     4.5530 c          1 73Z       0.516700
     19 N21          7.6630    -1.8600     2.4020 nu         1 73Z      -0.771600
     20 C22          7.7110    -2.7400     1.2310 c3         1 73Z       0.281500
     21 C23          9.1560    -3.1780     0.9840 c3         1 73Z      -0.158900
     22 C24          9.2220    -4.0220    -0.2930 c3         1 73Z      -0.162400
     23 C25          8.2370    -5.1640    -0.1650 c          1 73Z       0.562100
     24 C26          6.8110    -4.8410     0.2220 c3         1 73Z      -0.162400
     25 C27          6.8330    -3.9670     1.4810 c3         1 73Z      -0.158900
     26 O28          8.5810    -6.3040    -0.3670 o          1 73Z      -0.485100
     27 N29          7.8420     0.9640     5.4860 nz         1 73Z      -0.672400
     28 O30          8.6080    -0.8780     4.5090 o          1 73Z      -0.484100
     29 H1           4.5880    -0.0020    -1.0460 h4         1 73Z       0.175000
     30 H2          -0.8270     2.2820     1.6440 hc         1 73Z       0.043700
     31 H3           0.3680     2.5930     2.9100 hc         1 73Z       0.043700
     32 H4           0.9000     2.1610     1.2790 hc         1 73Z       0.043700
     33 H5          -1.5760     0.7960     3.7110 hc         1 73Z       0.043700
     34 H6          -0.0130     0.8510     4.5390 hc         1 73Z       0.043700
     35 H7          -0.6770    -0.6990     4.0050 hc         1 73Z       0.043700
     36 H8           1.6490     0.9400    -2.8380 hc         1 73Z       0.056033
     37 H9           1.4470    -0.8170    -2.7970 hc         1 73Z       0.056033
     38 H10          3.0380    -0.1180    -3.1270 hc         1 73Z       0.056033
     39 H11          3.7720     1.6350     2.9030 ha         1 73Z       0.172000
     40 H12         -0.5940    -1.3310     1.5720 hc         1 73Z       0.078200
     41 H13         -1.6800     0.0520     1.3320 hc         1 73Z       0.078200
     42 H14          2.1080     0.6920     3.1740 hc         1 73Z       0.057700
     43 H15          1.5250    -1.0170     2.9040 hc         1 73Z       0.057700
     44 H16          5.6230     1.6420     4.5180 ha         1 73Z       0.113000
     45 H17          5.5650    -1.6460     0.8150 ha         1 73Z       0.177000
     46 H18          8.3440    -1.9580     3.1290 hn         1 73Z       0.485800
     47 H19          7.3450    -2.2090     0.3610 h1         1 73Z       0.040700
     48 H20         10.0090    -2.5990     1.3170 hc         1 73Z       0.076950
     49 H21          8.6700    -2.4980     0.2950 hc         1 73Z       0.076950
     50 H22         10.2230    -4.4180    -0.4160 hc         1 73Z       0.075950
     51 H23          8.9590    -3.4100    -1.1470 hc         1 73Z       0.075950
     52 H24          6.2730    -5.7590     0.4270 hc         1 73Z       0.075950
     53 H25          6.3290    -4.3030    -0.5850 hc         1 73Z       0.075950
     54 H26          5.8250    -3.6470     1.7150 hc         1 73Z       0.076950
     55 H27          7.2380    -4.5380     2.3080 hc         1 73Z       0.076950
     56 H28          7.8480     1.8590     5.0390 hn         1 73Z       0.476133
     57 H29          7.0530     0.9020     6.0990 hn         1 73Z       0.476133
     58 C11          0.1420     1.9960     2.0350 c3         1 73Z      -0.090100
     59 C12         -0.5880     0.3540     3.7670 c3         1 73Z      -0.090100
     60 H293         8.6840     0.8490     6.0150 hn         1 73Z       0.476133
@<TRIPOS>BOND
     1    26    23 2
     2    24    23 1
     3    24    25 1
     4    23    22 1
     5    25    20 1
     6    22    21 1
     7    20    21 1
     8    20    19 1
     9    19    16 1
    10     6     5 1
    11    16    17 ar
    12    16    15 ar
    13    17     7 ar
    14     4     5 2
    15     4    12 1
    16    28    18 2
    17     5     2 1
    18    18    15 1
    19    18    27 1
    20    15    14 ar
    21     7    12 1
    22     7     8 ar
    23    12     3 1
    24     2     3 2
    25     2     1 1
    26    14     8 ar
    27     3    11 1
    28    13     1 2
    29     1     9 1
    30    11    10 1
    31    58    10 1
    32     9    10 1
    33    10    59 1
    34     4    29 1
    35    58    30 1
    36    58    31 1
    37    58    32 1
    38    59    33 1
    39    59    34 1
    40    59    35 1
    41     6    36 1
    42     6    37 1
    43     6    38 1
    44     8    39 1
    45     9    40 1
    46     9    41 1
    47    11    42 1
    48    11    43 1
    49    14    44 1
    50    17    45 1
    51    19    46 1
    52    20    47 1
    53    21    48 1
    54    21    49 1
    55    22    50 1
    56    22    51 1
    57    24    52 1
    58    24    53 1
    59    25    54 1
    60    25    55 1
    61    27    56 1
    62    27    57 1
    63    60    27 1
@<TRIPOS>SUBSTRUCTURE
     1 73Z         1 TEMP              0 ****  ****    0 ROOT
