@<TRIPOS>MOLECULE
740
   59    63     1     0     0
SMALL
bcc


@<TRIPOS>ATOM
      1 C1           0.0000     0.0000     0.0000 ca         1 740       0.024600
      2 C2           1.3880     0.0000     0.0000 ca         1 740      -0.147500
      3 C3           2.0790     0.0000     1.1970 ca         1 740      -0.056000
      4 C4           1.3860     0.0010     2.3950 ca         1 740      -0.099300
      5 C5           0.0030     0.0010     2.3990 ca         1 740      -0.056000
      6 C6          -0.6910     0.0000     1.2050 ca         1 740      -0.147500
      7 C7           2.1420     0.0000     3.6990 c3         1 740      -0.031100
      8 C8           2.3940     1.4210     4.1330 c          1 740       0.535100
      9 N9           3.0590     1.6680     5.2800 ns         1 740      -0.016400
     10 C10          3.2930     2.9870     5.6840 cc         1 740       0.308500
     11 N11          2.9240     4.0660     5.0450 nd         1 740      -0.611100
     12 N12          3.3320     5.2030     5.7500 na         1 740       0.413900
     13 C13          3.9920     4.8140     6.8890 ca         1 740      -0.196200
     14 C14          4.5960     5.5100     7.9340 ca         1 740      -0.091000
     15 C15          5.1890     4.8280     8.9580 ca         1 740      -0.103000
     16 C16          5.1990     3.4330     8.9740 ca         1 740       0.088600
     17 C17          4.6070     2.7190     7.9500 ca         1 740      -0.078000
     18 C18          3.9910     3.4060     6.8990 ca         1 740      -0.233900
     19 N19          5.8130     2.7530    10.0330 nh         1 740      -0.342900
     20 C22          6.0220     3.2700    11.3940 c3         1 740       0.181800
     21 O24          2.0000     2.3430     3.4520 o          1 740      -0.569100
     22 C9           7.2760     2.6260    12.0180 c3         1 740      -0.012400
     23 S1           6.4340     1.2050     9.9850 s6         1 740       0.936900
     24 C12          7.1400     1.1140    11.6770 c3         1 740       0.010400
     25 O2           5.3040     0.3540     9.8510 o          1 740      -0.577800
     26 O3           7.4600     1.2470     9.0030 o          1 740      -0.577800
     27 C11          0.2220     0.0040    -2.3500 c3         1 740       0.135800
     28 N1          -0.7010     0.0060    -1.2080 nh         1 740      -0.355000
     29 C19         -1.6360    -1.1240    -1.2790 c3         1 740       0.135800
     30 C20         -2.4860    -1.0050    -2.5470 c3         1 740      -0.025900
     31 C21         -1.5680    -0.9990    -3.7720 c3         1 740      -0.027400
     32 C23         -0.5720     0.1570    -3.6500 c3         1 740      -0.025900
     33 H71          3.0880    -0.5100     3.5670 hc         1 740       0.028700
     34 H72          1.5580    -0.5100     4.4550 hc         1 740       0.028700
     35 H5          -0.5350     0.0010     3.3380 ha         1 740       0.101000
     36 H6          -1.7750     0.0000     1.2090 ha         1 740       0.117000
     37 H2           1.9310    -0.0010    -0.9380 ha         1 740       0.117000
     38 H3           3.1620     0.0000     1.1980 ha         1 740       0.101000
     39 H191        -1.0780    -2.0520    -1.3060 h1         1 740       0.017950
     40 H192        -2.2830    -1.1100    -0.4110 h1         1 740       0.017950
     41 H201        -3.1620    -1.8490    -2.6080 hc         1 740       0.019700
     42 H202        -3.0520    -0.0820    -2.5160 hc         1 740       0.019700
     43 H211        -1.0280    -1.9370    -3.8230 hc         1 740       0.013200
     44 H212        -2.1630    -0.8690    -4.6680 hc         1 740       0.013200
     45 H231         0.1090     0.1370    -4.4920 hc         1 740       0.019700
     46 H232        -1.1100     1.0970    -3.6350 hc         1 740       0.019700
     47 H112         0.9160     0.8300    -2.2540 h1         1 740       0.017950
     48 HN9          3.3850     0.9070     5.8420 hn         1 740       0.172500
     49 H12          3.1690     6.1490     5.4680 hn         1 740       0.154700
     50 H14          4.5950     6.5930     7.9340 ha         1 740       0.103000
     51 H15          5.6570     5.3770     9.7670 ha         1 740       0.107000
     52 H17          4.6150     1.6360     7.9640 ha         1 740       0.129000
     53 H221         5.1580     3.0340    12.0030 h1         1 740       0.024200
     54 H222         6.1550     4.3440    11.3520 h1         1 740       0.024200
     55 H91          8.1730     3.0350    11.5690 hc         1 740       0.035200
     56 H92          7.2800     2.7720    13.0910 hc         1 740       0.035200
     57 H121         8.1090     0.6290    11.6670 h1         1 740       0.077700
     58 H122         6.4550     0.6220    12.3570 h1         1 740       0.077700
     59 H111         0.7680    -0.9320    -2.3700 h1         1 740       0.017950
@<TRIPOS>BOND
     1     1     2 ar  
     2     1     6 ar  
     3     1    28 1   
     4     2     3 ar  
     5     2    37 1   
     6     3     4 ar  
     7     3    38 1   
     8     4     5 ar  
     9     4     7 1   
    10     5     6 ar  
    11     5    35 1   
    12     6    36 1   
    13     7     8 1   
    14     7    33 1   
    15     7    34 1   
    16     8     9 1   
    17     8    21 2   
    18     9    10 1   
    19     9    48 1   
    20    10    11 2   
    21    10    18 1   
    22    11    12 1   
    23    12    13 1   
    24    12    49 1   
    25    13    14 ar  
    26    13    18 ar  
    27    14    15 ar  
    28    14    50 1   
    29    15    16 ar  
    30    15    51 1   
    31    16    17 ar  
    32    16    19 1   
    33    17    18 ar  
    34    17    52 1   
    35    19    20 1   
    36    19    23 1   
    37    20    22 1   
    38    20    53 1   
    39    20    54 1   
    40    22    24 1   
    41    22    55 1   
    42    22    56 1   
    43    23    24 1   
    44    23    25 2   
    45    23    26 2   
    46    24    57 1   
    47    24    58 1   
    48    27    28 1   
    49    27    32 1   
    50    27    47 1   
    51    27    59 1   
    52    28    29 1   
    53    29    30 1   
    54    29    39 1   
    55    29    40 1   
    56    30    31 1   
    57    30    41 1   
    58    30    42 1   
    59    31    32 1   
    60    31    43 1   
    61    31    44 1   
    62    32    45 1   
    63    32    46 1   
@<TRIPOS>SUBSTRUCTURE
     1 740         1 TEMP              0 ****  ****    0 ROOT
