@<TRIPOS>MOLECULE
741
   67    70     1     0     0
SMALL
bcc


@<TRIPOS>ATOM
      1 C1           0.0000     0.0000     0.0000 ca         1 741       0.153100
      2 C2           1.4010     0.0000     0.0000 ca         1 741       0.162100
      3 C3           2.1040     0.0000     1.1830 ca         1 741      -0.255300
      4 C4           1.4130     0.0000     2.4040 ca         1 741       0.399600
      5 C5          -0.0020     0.0000     2.3950 ca         1 741      -0.142300
      6 C6          -0.6950     0.0000     1.1750 ca         1 741      -0.189000
      7 N7           2.0820    -0.0010     3.5680 nb         1 741      -0.557000
      8 C8           1.4650    -0.0010     4.7210 ca         1 741       0.428200
      9 C9           0.0640    -0.0010     4.8080 ca         1 741      -0.097300
     10 C10         -0.6960     0.0010     3.6280 ca         1 741       0.066600
     11 O11         -0.6740     0.0060    -1.1800 os         1 741      -0.287900
     12 O12          2.0730     0.0010    -1.1810 os         1 741      -0.284900
     13 C13          3.5010     0.0020    -1.1160 c3         1 741       0.198400
     14 C14          4.0760     0.0010    -2.5330 c3         1 741      -0.042400
     15 C15          5.6050     0.0020    -2.4630 c3         1 741       0.152800
     16 C16         -2.1010     0.0050    -1.1130 c3         1 741       0.235700
     17 N17         -2.0760     0.0010     3.6680 nu         1 741      -0.265000
     18 C18         -2.7780    -1.2090     3.6320 ca         1 741       0.085600
     19 C19         -4.1630    -1.2120     3.7250 ca         1 741      -0.195000
     20 C20         -4.8560    -2.4050     3.6880 ca         1 741       0.025000
     21 C21         -4.1680    -3.6050     3.5590 ca         1 741      -0.008100
     22 C22         -2.7800    -3.6030     3.4660 ca         1 741       0.076400
     23 C23         -2.0890    -2.4080     3.4970 ca         1 741      -0.195000
     24 Cl24        -1.9190    -5.1010     3.3030 cl         1 741       0.001600
     25 S25         -5.0520    -5.1280     3.5130 ss         1 741      -0.358200
     26 C26         -4.9290    -5.5020     1.7960 cc         1 741       0.335800
     27 N27         -4.4070    -4.7240     0.8760 nd         1 741      -0.626000
     28 C28         -4.4850    -5.3340    -0.3180 cd         1 741       0.331200
     29 C29         -5.0740    -6.5300    -0.1440 cc         1 741      -0.432600
     30 N30         -5.3540    -6.6490     1.1980 na         1 741       0.323100
     31 C31         -5.9930    -7.7900     1.8580 c3         1 741      -0.017400
     32 C32         -0.5830    -0.0020     6.0850 cg         1 741       0.231800
     33 N33         -1.0930     0.0160     7.1000 n1         1 741      -0.367800
     34 N34          6.1570     0.0020    -3.8250 n3         1 741      -0.522600
     35 C35          7.6070    -0.2360    -3.8040 c3         1 741       0.145800
     36 C36          5.8390     1.2560    -4.5210 c3         1 741       0.178100
     37 C37          7.8770    -1.7200    -3.5490 c3         1 741       0.223400
     38 O38          7.3860    -2.4890    -4.6500 oh         1 741      -0.575800
     39 H3           3.1880     0.0000     1.1690 ha         1 741       0.143000
     40 H6          -1.7780     0.0000     1.1640 ha         1 741       0.141000
     41 H8           2.0370    -0.0020     5.6410 h4         1 741      -0.011900
     42 H13          3.8410    -0.9070    -0.6330 h1         1 741       0.004200
     43 H13A         3.8360     0.8600    -0.5460 h1         1 741       0.004200
     44 H14          3.7690    -0.9010    -3.0470 hc         1 741       0.036700
     45 H14A         3.7090     0.8670    -3.0720 hc         1 741       0.036700
     46 H15          5.9400    -0.8490    -1.8820 h1         1 741       0.008200
     47 H15A         5.9440     0.9170    -1.9920 h1         1 741       0.008200
     48 H16         -2.4370     0.8710    -0.5550 h1         1 741       0.003367
     49 H16A        -2.4390    -0.8970    -0.6180 h1         1 741       0.003367
     50 H16B        -2.5100     0.0420    -2.1160 h1         1 741       0.003367
     51 HN17        -2.5740     0.8670     3.7260 hn         1 741       0.299800
     52 H19         -4.7010    -0.2770     3.8250 ha         1 741       0.114000
     53 H20         -5.9370    -2.4060     3.7610 ha         1 741       0.116000
     54 H23         -1.0080    -2.4060     3.4200 ha         1 741       0.133000
     55 H28         -4.1350    -4.9340    -1.2620 h4         1 741       0.001100
     56 H29         -5.2790    -7.2580    -0.9200 h4         1 741       0.153000
     57 H31         -6.8850    -7.4570     2.3740 h1         1 741       0.028033
     58 H31A        -5.3050    -8.2260     2.5720 h1         1 741       0.028033
     59 H31B        -6.2610    -8.5330     1.1160 h1         1 741       0.028033
     60 H35          8.0420     0.2630    -2.9470 h1         1 741       0.012700
     61 H35A         8.0500     0.1540    -4.7120 h1         1 741       0.012700
     62 H36          6.5030     1.3770    -5.3680 h1         1 741       0.003367
     63 H36A         4.8130     1.2250    -4.8680 h1         1 741       0.003367
     64 H36B         5.9650     2.0890    -3.8410 h1         1 741       0.003367
     65 H37          8.9460    -1.8910    -3.5150 h1         1 741      -0.014300
     66 H37A         7.4340    -2.0110    -2.6040 h1         1 741      -0.014300
     67 HO38         7.8340    -3.3180    -4.6790 ho         1 741       0.381000
@<TRIPOS>BOND
     1     1     2 ar  
     2     1     6 ar  
     3     1    11 1   
     4     2     3 ar  
     5     2    12 1   
     6     3     4 ar  
     7     3    39 1   
     8     4     5 ar  
     9     4     7 ar  
    10     5     6 ar  
    11     5    10 ar  
    12     6    40 1   
    13     7     8 ar  
    14     8     9 ar  
    15     8    41 1   
    16     9    10 ar  
    17     9    32 1   
    18    10    17 1   
    19    11    16 1   
    20    12    13 1   
    21    13    14 1   
    22    13    42 1   
    23    13    43 1   
    24    14    15 1   
    25    14    44 1   
    26    14    45 1   
    27    15    34 1   
    28    15    46 1   
    29    15    47 1   
    30    16    48 1   
    31    16    49 1   
    32    16    50 1   
    33    17    18 1   
    34    17    51 1   
    35    18    19 ar  
    36    18    23 ar  
    37    19    20 ar  
    38    19    52 1   
    39    20    21 ar  
    40    20    53 1   
    41    21    22 ar  
    42    21    25 1   
    43    22    23 ar  
    44    22    24 1   
    45    23    54 1   
    46    25    26 1   
    47    26    27 2   
    48    26    30 1   
    49    27    28 1   
    50    28    29 2   
    51    28    55 1   
    52    29    30 1   
    53    29    56 1   
    54    30    31 1   
    55    31    57 1   
    56    31    58 1   
    57    31    59 1   
    58    32    33 3   
    59    34    35 1   
    60    34    36 1   
    61    35    37 1   
    62    35    60 1   
    63    35    61 1   
    64    36    62 1   
    65    36    63 1   
    66    36    64 1   
    67    37    38 1   
    68    37    65 1   
    69    37    66 1   
    70    38    67 1   
@<TRIPOS>SUBSTRUCTURE
     1 741         1 TEMP              0 ****  ****    0 ROOT
