@<TRIPOS>MOLECULE
molecule
   67    70     1     0     0
SMALL
bcc


@<TRIPOS>ATOM
      1 C1           0.0000     0.0000     0.0000 ca         1 741       0.141100
      2 C2           1.4010     0.0000     0.0000 ca         1 741       0.162100
      3 C3           2.1040     0.0000     1.1830 ca         1 741      -0.264300
      4 C4           1.4130     0.0000     2.4040 ca         1 741       0.446600
      5 C5          -0.0020     0.0000     2.3950 ca         1 741      -0.161300
      6 C6          -0.6950     0.0000     1.1750 ca         1 741      -0.187000
      7 N7           2.0820    -0.0010     3.5680 nb         1 741      -0.679000
      8 C8           1.4650    -0.0010     4.7210 ca         1 741       0.462200
      9 C9           0.0640    -0.0010     4.8080 ca         1 741      -0.161300
     10 C10         -0.6960     0.0010     3.6280 ca         1 741       0.225600
     11 O11         -0.6740     0.0060    -1.1800 os         1 741      -0.307900
     12 O12          2.0730     0.0010    -1.1810 os         1 741      -0.304900
     13 C13          3.5010     0.0020    -1.1160 c3         1 741       0.130400
     14 C14          4.0760     0.0010    -2.5330 c3         1 741      -0.082400
     15 C15          5.6050     0.0020    -2.4630 c3         1 741       0.165800
     16 C16         -2.1010     0.0050    -1.1130 c3         1 741       0.122700
     17 N17         -2.0760     0.0010     3.6680 nu         1 741      -0.707000
     18 C18         -2.7780    -1.2090     3.6320 ca         1 741       0.228600
     19 C19         -4.1630    -1.2120     3.7250 ca         1 741      -0.212000
     20 C20         -4.8560    -2.4050     3.6880 ca         1 741      -0.018000
     21 C21         -4.1680    -3.6050     3.5590 ca         1 741      -0.043100
     22 C22         -2.7800    -3.6030     3.4660 ca         1 741       0.132400
     23 C23         -2.0890    -2.4080     3.4970 ca         1 741      -0.201000
     24 Cl24        -1.9190    -5.1010     3.3030 cl         1 741      -0.081400
     25 S25         -5.0520    -5.1280     3.5130 ss         1 741      -0.230200
     26 C26         -4.9290    -5.5020     1.7960 cc         1 741       0.499800
     27 N27         -4.4070    -4.7240     0.8760 nd         1 741      -0.697000
     28 C28         -4.4850    -5.3340    -0.3180 cd         1 741       0.315200
     29 C29         -5.0740    -6.5300    -0.1440 cc         1 741      -0.272600
     30 N30         -5.3540    -6.6490     1.1980 na         1 741      -0.173900
     31 C31         -5.9930    -7.7900     1.8580 c3         1 741       0.032600
     32 C32         -0.5830    -0.0020     6.0850 cg         1 741       0.244800
     33 N33         -1.0930     0.0160     7.1000 n1         1 741      -0.354800
     34 N34          6.1570     0.0020    -3.8250 n3         1 741      -0.715600
     35 C35          7.6070    -0.2360    -3.8040 c3         1 741       0.167800
     36 C36          5.8390     1.2560    -4.5210 c3         1 741       0.152100
     37 C37          7.8770    -1.7200    -3.5490 c3         1 741       0.146400
     38 O38          7.3860    -2.4890    -4.6500 oh         1 741      -0.591800
     39 H3           3.1880     0.0000     1.1690 ha         1 741       0.164000
     40 H6          -1.7780     0.0000     1.1640 ha         1 741       0.159000
     41 H8           2.0370    -0.0020     5.6410 h4         1 741       0.035100
     42 H13          3.8410    -0.9070    -0.6330 h1         1 741       0.038200
     43 H13A         3.8360     0.8600    -0.5460 h1         1 741       0.038200
     44 H14          3.7690    -0.9010    -3.0470 hc         1 741       0.068700
     45 H14A         3.7090     0.8670    -3.0720 hc         1 741       0.068700
     46 H15          5.9400    -0.8490    -1.8820 h1         1 741       0.031700
     47 H15A         5.9440     0.9170    -1.9920 h1         1 741       0.031700
     48 H16         -2.4370     0.8710    -0.5550 h1         1 741       0.047367
     49 H16A        -2.4390    -0.8970    -0.6180 h1         1 741       0.047367
     50 H16B        -2.5100     0.0420    -2.1160 h1         1 741       0.047367
     51 HN17        -2.5740     0.8670     3.7260 hn         1 741       0.461800
     52 H19         -4.7010    -0.2770     3.8250 ha         1 741       0.136000
     53 H20         -5.9370    -2.4060     3.7610 ha         1 741       0.149000
     54 H23         -1.0080    -2.4060     3.4200 ha         1 741       0.156000
     55 H28         -4.1350    -4.9340    -1.2620 h4         1 741       0.039100
     56 H29         -5.2790    -7.2580    -0.9200 h4         1 741       0.173000
     57 H31         -6.8850    -7.4570     2.3740 h1         1 741       0.056033
     58 H31A        -5.3050    -8.2260     2.5720 h1         1 741       0.056033
     59 H31B        -6.2610    -8.5330     1.1160 h1         1 741       0.056033
     60 H35          8.0420     0.2630    -2.9470 h1         1 741       0.039200
     61 H35A         8.0500     0.1540    -4.7120 h1         1 741       0.039200
     62 H36          6.5030     1.3770    -5.3680 h1         1 741       0.034033
     63 H36A         4.8130     1.2250    -4.8680 h1         1 741       0.034033
     64 H36B         5.9650     2.0890    -3.8410 h1         1 741       0.034033
     65 H37          8.9460    -1.8910    -3.5150 h1         1 741       0.020200
     66 H37A         7.4340    -2.0110    -2.6040 h1         1 741       0.020200
     67 HO38         7.8340    -3.3180    -4.6790 ho         1 741       0.394000
@<TRIPOS>BOND
     1     1     2 ar
     2     1     6 ar
     3     1    11 1
     4     2     3 ar
     5     2    12 1
     6     3     4 ar
     7     4     5 ar
     8     4     7 ar
     9     5     6 ar
    10     5    10 ar
    11     7     8 ar
    12     8     9 ar
    13     9    10 ar
    14     9    32 1
    15    10    17 1
    16    11    16 1
    17    12    13 1
    18    13    14 1
    19    14    15 1
    20    15    34 1
    21    17    18 1
    22    18    19 ar
    23    18    23 ar
    24    19    20 ar
    25    20    21 ar
    26    21    22 ar
    27    21    25 1
    28    22    23 ar
    29    22    24 1
    30    25    26 1
    31    26    27 2
    32    26    30 1
    33    27    28 1
    34    28    29 2
    35    29    30 1
    36    30    31 1
    37    32    33 3
    38    34    35 1
    39    34    36 1
    40    35    37 1
    41    37    38 1
    42     3    39 1
    43     6    40 1
    44     8    41 1
    45    13    42 1
    46    13    43 1
    47    14    44 1
    48    14    45 1
    49    15    46 1
    50    15    47 1
    51    16    48 1
    52    16    49 1
    53    16    50 1
    54    17    51 1
    55    19    52 1
    56    20    53 1
    57    23    54 1
    58    28    55 1
    59    29    56 1
    60    31    57 1
    61    31    58 1
    62    31    59 1
    63    35    60 1
    64    35    61 1
    65    36    62 1
    66    36    63 1
    67    36    64 1
    68    37    65 1
    69    37    66 1
    70    38    67 1
@<TRIPOS>SUBSTRUCTURE
     1 741         1 TEMP              0 ****  ****    0 ROOT
