@<TRIPOS>MOLECULE
molecule
   59    58     1     0     0
SMALL
bcc


@<TRIPOS>ATOM
      1 CAA          0.0000     0.0000     0.0000 c3         1 742      -0.092100
      2 CAJ          1.5300     0.0000     0.0000 c3         1 742      -0.084400
      3 CAK          2.0400     0.0000     1.4420 c3         1 742      -0.081400
      4 CAL          3.5700    -0.0000     1.4420 c3         1 742      -0.082400
      5 CAM          4.0810     0.0000     2.8850 c3         1 742      -0.082400
      6 CAN          5.6110     0.0000     2.8840 c3         1 742      -0.082400
      7 CAO          6.1220     0.0000     4.3260 c3         1 742      -0.082400
      8 CAP          7.6510     0.0000     4.3260 c3         1 742      -0.082400
      9 CAQ          8.1620     0.0000     5.7690 c3         1 742      -0.084400
     10 CAR          9.6920     0.0010     5.7680 c3         1 742      -0.079400
     11 CAS         10.2020     0.0010     7.2100 c3         1 742      -0.069400
     12 CAT         11.7320     0.0010     7.2100 c3         1 742      -0.083600
     13 PAY         12.3400     0.0010     8.9290 p5         1 742      -0.206200
     14 CAB         11.7330     1.4900     9.7870 c3         1 742      -0.045300
     15 CAC         11.7320    -1.4870     9.7880 c3         1 742      -0.045300
     16 CAU         14.1630     0.0010     8.9280 c3         1 742       0.092400
     17 CAV         14.6740     0.2480    10.3480 c3         1 742      -0.254100
     18 PAX         16.2000    -0.7120    10.6220 p5         1 742       1.028200
     19 OAH         15.8300    -2.2690    10.8010 o          1 742      -0.869000
     20 OAI         17.1780    -0.5360     9.3550 o          1 742      -0.869000
     21 OAE         16.8790    -0.2220    11.8420 o          1 742      -0.869000
     22 PAW         15.0250     2.0230    10.5690 p5         1 742       1.028200
     23 OAF         15.6830     2.5500     9.3520 o          1 742      -0.869000
     24 OAG         13.6460     2.8160    10.8190 o          1 742      -0.869000
     25 OAD         15.9980     2.2250    11.8360 o          1 742      -0.869000
     26 HAV         13.9200    -0.0620    11.0620 hc         1 742       0.031700
     27 HAU1        14.5240     0.7840     8.2730 hc         1 742       0.089700
     28 HAU2        14.5240    -0.9580     8.5760 hc         1 742       0.089700
     29 HAC1        10.6510    -1.4590     9.8380 hc         1 742       0.068200
     30 HAC2        12.1400    -1.5160    10.7920 hc         1 742       0.068200
     31 HAC3        12.0460    -2.3710     9.2460 hc         1 742       0.068200
     32 HAB1        12.1110     2.3740     9.2880 hc         1 742       0.068200
     33 HAB2        10.6500     1.5010     9.7690 hc         1 742       0.068200
     34 HAB3        12.0770     1.4810    10.8140 hc         1 742       0.068200
     35 HAT1        12.0930    -0.8840     6.6990 hc         1 742       0.062200
     36 HAT2        12.0930     0.8850     6.6990 hc         1 742       0.062200
     37 HAS1         9.8410     0.8850     7.7210 hc         1 742       0.035700
     38 HAS2         9.8410    -0.8840     7.7210 hc         1 742       0.035700
     39 HAR1        10.0530    -0.8840     5.2570 hc         1 742       0.038700
     40 HAR2        10.0530     0.8850     5.2570 hc         1 742       0.038700
     41 HAQ1         7.8010     0.8850     6.2790 hc         1 742       0.037700
     42 HAQ2         7.8010    -0.8840     6.2790 hc         1 742       0.037700
     43 HAP1         8.0120     0.8850     3.8160 hc         1 742       0.038700
     44 HAP2         8.0120    -0.8840     3.8160 hc         1 742       0.038700
     45 HAO1         5.7610     0.8850     4.8370 hc         1 742       0.038700
     46 HAO2         5.7610    -0.8840     4.8370 hc         1 742       0.038700
     47 HAN1         5.9720    -0.8840     2.3730 hc         1 742       0.039200
     48 HAN2         5.9720     0.8850     2.3730 hc         1 742       0.039200
     49 HAM1         3.7200     0.8840     3.3960 hc         1 742       0.039200
     50 HAM2         3.7200    -0.8850     3.3960 hc         1 742       0.039200
     51 HAL1         3.9310     0.8840     0.9310 hc         1 742       0.039200
     52 HAL2         3.9310    -0.8840     0.9310 hc         1 742       0.039200
     53 HAK1         1.6790     0.8840     1.9530 hc         1 742       0.039700
     54 HAK2         1.6790    -0.8840     1.9530 hc         1 742       0.039700
     55 HAJ1         1.8910    -0.8700    -0.5360 hc         1 742       0.038700
     56 HAJ2         1.8910     0.8990    -0.4860 hc         1 742       0.038700
     57 HAA1        -0.3610    -0.8850     0.5110 hc         1 742       0.028700
     58 HAA2        -0.3610     0.0000    -1.0210 hc         1 742       0.028700
     59 HAA3        -0.3610     0.8840     0.5110 hc         1 742       0.028700
@<TRIPOS>BOND
     1     1     2 1
     2     1    57 1
     3     1    58 1
     4     1    59 1
     5     2     3 1
     6     2    55 1
     7     2    56 1
     8     3     4 1
     9     3    53 1
    10     3    54 1
    11     4     5 1
    12     4    51 1
    13     4    52 1
    14     5     6 1
    15     5    49 1
    16     5    50 1
    17     6     7 1
    18     6    47 1
    19     6    48 1
    20     7     8 1
    21     7    45 1
    22     7    46 1
    23     8     9 1
    24     8    43 1
    25     8    44 1
    26     9    10 1
    27     9    41 1
    28     9    42 1
    29    10    11 1
    30    10    39 1
    31    10    40 1
    32    11    12 1
    33    11    37 1
    34    11    38 1
    35    12    13 1
    36    12    35 1
    37    12    36 1
    38    13    16 1
    39    13    15 1
    40    13    14 1
    41    14    32 1
    42    14    33 1
    43    14    34 1
    44    15    29 1
    45    15    30 1
    46    15    31 1
    47    16    17 1
    48    16    27 1
    49    16    28 1
    50    17    18 1
    51    17    26 1
    52    17    22 1
    53    18    19 1
    54    18    21 1
    55    18    20 1
    56    22    23 1
    57    22    24 1
    58    22    25 1
@<TRIPOS>SUBSTRUCTURE
     1 742         1 TEMP              0 ****  ****    0 ROOT
