@<TRIPOS>MOLECULE
742
   59    57     1     0     0
SMALL
bcc


@<TRIPOS>ATOM
      1 CAA       -17.3680   95.5440    4.7630 c3        1 742     -0.209000
      2 CAJ       -17.9190   96.2730    3.5650 c3        1 742     -0.159000
      3 CAK       -19.3130   96.8020    3.8270 c3        1 742     -0.158000
      4 CAL       -19.8610   97.5350    2.6220 c3        1 742     -0.158000
      5 CAM       -21.2540   98.0660    2.8860 c3        1 742     -0.157000
      6 CAN       -21.8020   98.8020    1.6830 c3        1 742     -0.158000
      7 CAO       -23.1910   99.3410    1.9500 c3        1 742     -0.157000
      8 CAP       -23.7380  100.0820    0.7490 c3        1 742     -0.158000
      9 CAQ       -25.1220  100.6320    1.0200 c3        1 742     -0.155000
     10 CAR       -25.6680  101.3720   -0.1840 c3        1 742     -0.159000
     11 CAS       -27.0540  101.9250    0.0910 c3        1 742     -0.097000
     12 CAT       -27.6090  102.7160   -1.0570 c3        1 742     -0.901000
     13 PAY       -28.8480  101.9300   -1.8740 p5        1 742      3.352000
     14 CAB       -28.4230  100.5080   -2.1470 c2        1 742     -1.707000
     15 CAC       -30.0960  101.9820   -0.7970 c3        1 742     -1.033000
     16 CAU       -29.2610  102.6950   -3.2320 c3        1 742     -0.846000
     17 CAV       -29.3460  104.0790   -2.7670 c2        1 742     -1.503000
     18 PAX       469.6020-1377.3410   79.5170 p3        1 742      2.361000
     19 OAH       468.1480-1377.4100   79.2840 o         1 742     -1.120000
     20 OAI       470.4830-1378.4020   78.9960 o         1 742     -1.120000
     21 OAE       470.1750-1376.2120   80.2710 o         1 742     -1.120000
     22 PAW       -30.6730  104.9130   -2.8850 p5        1 742      2.136000
     23 OAF       -31.8160  104.2350   -3.5950 o         1 742     -0.966000
     24 OAG       -31.3820  104.8950   -1.3390 oh        1 742     -0.860000
     25 OAD       -30.4970  106.3790   -3.1490 o         1 742     -0.966000
     26 HAV       -28.3980  104.5940   -2.6320 ha        1 742      0.088000
     27 HAU1      -30.2660  102.4240   -3.6610 hc        1 742      0.097000
     28 HAU2      -28.5410  102.5540   -4.0830 hc        1 742      0.097000
     29 HAC1      -29.7960  101.8860    0.2680 hc        1 742      0.130333
     30 HAC2      -30.6270  102.9800   -0.9020 hc        1 742      0.130333
     31 HAC3      -30.8570  101.1940   -0.9950 hc        1 742      0.130333
     32 HAB1      -28.1060   99.7870   -1.4010 ha        1 742      0.104500
     33 HAB2      -28.4130  100.0650   -3.1390 ha        1 742      0.104500
     34 HAB3      -32.3140  104.7530   -1.4360 ho        1 742      0.177000
     35 HAT1      -26.7970  102.9780   -1.7800 hc        1 742      0.134000
     36 HAT2      -27.9920  103.7040   -0.6820 hc        1 742      0.134000
     37 HAS1      -26.9980  102.5630    1.0160 hc        1 742      0.055500
     38 HAS2      -27.7430  101.0690    0.3300 hc        1 742      0.055500
     39 HAR1      -25.7160  100.6770   -1.0640 hc        1 742      0.086000
     40 HAR2      -24.9740  102.2110   -0.4530 hc        1 742      0.086000
     41 HAQ1      -25.8150   99.7900    1.2850 hc        1 742      0.069500
     42 HAQ2      -25.0850  101.3210    1.9040 hc        1 742      0.069500
     43 HAP1      -23.7770   99.3910   -0.1350 hc        1 742      0.077000
     44 HAP2      -23.0460  100.9230    0.4790 hc        1 742      0.077000
     45 HAO1      -23.1630  100.0290    2.8350 hc        1 742      0.074000
     46 HAO2      -23.8790   98.4940    2.2120 hc        1 742      0.074000
     47 HAN1      -21.8310   98.1110    0.7990 hc        1 742      0.077000
     48 HAN2      -21.1160   99.6500    1.4160 hc        1 742      0.077000
     49 HAM1      -21.2320   98.7560    3.7710 hc        1 742      0.076000
     50 HAM2      -21.9370   97.2150    3.1480 hc        1 742      0.076000
     51 HAL1      -19.1800   98.3860    2.3560 hc        1 742      0.077500
     52 HAL2      -19.8850   96.8430    1.7390 hc        1 742      0.077500
     53 HAK1      -19.2920   97.4940    4.7100 hc        1 742      0.077000
     54 HAK2      -19.9940   95.9510    4.0910 hc        1 742      0.077000
     55 HAJ1      -17.2400   97.1260    3.2980 hc        1 742      0.076500
     56 HAJ2      -17.9420   95.5820    2.6810 hc        1 742      0.076500
     57 HAA1      -16.3410   95.1610    4.5480 hc        1 742      0.067667
     58 HAA2      -17.3130   96.2250    5.6470 hc        1 742      0.067667
     59 HAA3      -18.0190   94.6770    5.0300 hc        1 742      0.067667
@<TRIPOS>BOND
     1    1    2 1   
     2    1   57 1   
     3    1   58 1   
     4    1   59 1   
     5    2    3 1   
     6    2   55 1   
     7    2   56 1   
     8    3    4 1   
     9    3   53 1   
    10    3   54 1   
    11    4    5 1   
    12    4   51 1   
    13    4   52 1   
    14    5    6 1   
    15    5   49 1   
    16    5   50 1   
    17    6    7 1   
    18    6   47 1   
    19    6   48 1   
    20    7    8 1   
    21    7   45 1   
    22    7   46 1   
    23    8    9 1   
    24    8   43 1   
    25    8   44 1   
    26    9   10 1   
    27    9   41 1   
    28    9   42 1   
    29   10   11 1   
    30   10   39 1   
    31   10   40 1   
    32   11   12 1   
    33   11   37 1   
    34   11   38 1   
    35   12   13 1   
    36   12   35 1   
    37   12   36 1   
    38   13   14 1   
    39   13   15 1   
    40   13   16 1   
    41   14   32 1   
    42   14   33 1   
    43   15   29 1   
    44   15   30 1   
    45   15   31 1   
    46   16   17 1   
    47   16   27 1   
    48   16   28 1   
    49   17   22 1   
    50   17   26 1   
    51   18   19 1   
    52   18   20 1   
    53   18   21 1   
    54   22   23 1   
    55   22   24 1   
    56   22   25 1   
    57   24   34 1   
@<TRIPOS>SUBSTRUCTURE
     1 742         1 TEMP              0 ****  ****    0 ROOT
