@<TRIPOS>MOLECULE
743
   59    61     1     0     0
SMALL
bcc


@<TRIPOS>ATOM
      1 C1           0.0000     0.0000     0.0000 ca         1 743       0.103900
      2 F1          -0.6740     0.0000    -1.1710 f          1 743      -0.128900
      3 C2           1.3850     0.0000     0.0000 ca         1 743      -0.129000
      4 C3           2.0770     0.0000     1.1930 ca         1 743      -0.073500
      5 C4           1.3810     0.0000     2.4000 cp         1 743      -0.043000
      6 C5          -0.0120    -0.0010     2.3960 ca         1 743      -0.073500
      7 C6          -0.6970     0.0040     1.1970 ca         1 743      -0.129000
      8 C7           2.1200    -0.0010     3.6860 cp         1 743      -0.021000
      9 C8           1.4250    -0.0020     4.8940 ca         1 743      -0.104000
     10 C9           2.1180    -0.0020     6.0870 ca         1 743      -0.067500
     11 C10          3.5020    -0.0020     6.0860 ca         1 743      -0.114300
     12 C11          4.1970    -0.0020     4.8900 ca         1 743      -0.067500
     13 C12          3.5140    -0.0070     3.6920 ca         1 743      -0.104000
     14 C13          4.2530    -0.0020     7.3920 c3         1 743       0.285700
     15 O14          4.4900    -1.3490     7.8060 os         1 743      -0.187300
     16 N15          5.2900    -1.4630     8.9690 n2         1 743      -0.374200
     17 C16          5.6520    -2.6160     9.3860 c2         1 743       0.350300
     18 C17          5.3410    -3.8450     8.5700 c3         1 743      -0.294000
     19 C18          6.0320    -3.7580     7.2240 c          1 743       0.612100
     20 O18          5.4040    -3.5360     6.2170 o          1 743      -0.494100
     21 C19          7.5310    -3.9560     7.1780 c3         1 743      -0.004600
     22 C20          7.8780    -5.2940     7.8340 c3         1 743      -0.056000
     23 C21          7.3660    -5.3080     9.2770 c3         1 743      -0.148400
     24 C22          5.8710    -5.0780     9.2730 c          1 743       0.618100
     25 O22          5.1210    -5.8550     9.8140 o          1 743      -0.523100
     26 C23          8.1940    -2.8620     7.9090 c1         1 743       0.192700
     27 N23          8.6960    -2.0240     8.4890 n1         1 743      -0.362800
     28 C24          7.2210    -6.4310     7.0490 c3         1 743      -0.000600
     29 C25          9.3960    -5.4850     7.8300 c3         1 743      -0.000600
     30 C26          6.3910    -2.7480    10.6930 c3         1 743      -0.085700
     31 C27          5.3860    -2.7700    11.8460 c3         1 743      -0.025400
     32 C28          6.1360    -2.9030    13.1730 c3         1 743       0.006900
     33 H2           1.9260     0.0000    -0.9390 ha         1 743       0.119000
     34 H3           3.1610     0.0000     1.1920 ha         1 743       0.116000
     35 H5          -0.5580     0.0010     3.3320 ha         1 743       0.116000
     36 H6          -1.7800     0.0040     1.1930 ha         1 743       0.119000
     37 H8           0.3410    -0.0020     4.8960 ha         1 743       0.112000
     38 H9           1.5780    -0.0030     7.0260 ha         1 743       0.107500
     39 H11          5.2800    -0.0040     4.8950 ha         1 743       0.107500
     40 H12          4.0610    -0.0070     2.7560 ha         1 743       0.112000
     41 H13          3.6670     0.5090     8.1460 h1         1 743       0.005700
     42 H13A         5.2000     0.5080     7.2640 h1         1 743       0.005700
     43 H17          4.2710    -3.9370     8.4260 hc         1 743       0.092700
     44 H19          7.8630    -3.9620     6.1470 hc         1 743       0.071700
     45 H21          7.8520    -4.5200     9.8400 hc         1 743       0.061200
     46 H21A         7.5830    -6.2690     9.7280 hc         1 743       0.061200
     47 H24          7.4600    -7.3780     7.5180 hc         1 743       0.016367
     48 H24A         7.5900    -6.4280     6.0310 hc         1 743       0.016367
     49 H24B         6.1460    -6.2920     7.0440 hc         1 743       0.016367
     50 H25          9.7730    -5.3580     6.8220 hc         1 743       0.016367
     51 H25A         9.8540    -4.7500     8.4820 hc         1 743       0.016367
     52 H25B         9.6360    -6.4800     8.1830 hc         1 743       0.016367
     53 H26          6.9620    -3.6690    10.6940 hc         1 743       0.042700
     54 H26A         7.0620    -1.9070    10.8150 hc         1 743       0.042700
     55 H27          4.8140    -1.8500    11.8450 hc         1 743       0.022200
     56 H27A         4.7150    -3.6120    11.7250 hc         1 743       0.022200
     57 H28          5.4350    -2.8180    13.9950 hc         1 743       0.002700
     58 H28A         6.8780    -2.1180    13.2490 hc         1 743       0.002700
     59 H28B         6.6260    -3.8680    13.2160 hc         1 743       0.002700
@<TRIPOS>BOND
     1     1     2 1   
     2     1     3 ar  
     3     1     7 ar  
     4     3     4 ar  
     5     3    33 1   
     6     4     5 ar  
     7     4    34 1   
     8     5     6 ar  
     9     5     8 1   
    10     6     7 ar  
    11     6    35 1   
    12     7    36 1   
    13     8     9 ar  
    14     8    13 ar  
    15     9    10 ar  
    16     9    37 1   
    17    10    11 ar  
    18    10    38 1   
    19    11    12 ar  
    20    11    14 1   
    21    12    13 ar  
    22    12    39 1   
    23    13    40 1   
    24    14    15 1   
    25    14    41 1   
    26    14    42 1   
    27    15    16 1   
    28    16    17 2   
    29    17    18 1   
    30    17    30 1   
    31    18    19 1   
    32    18    24 1   
    33    18    43 1   
    34    19    20 2   
    35    19    21 1   
    36    21    22 1   
    37    21    26 1   
    38    21    44 1   
    39    22    23 1   
    40    22    28 1   
    41    22    29 1   
    42    23    24 1   
    43    23    45 1   
    44    23    46 1   
    45    24    25 2   
    46    26    27 3   
    47    28    47 1   
    48    28    48 1   
    49    28    49 1   
    50    29    50 1   
    51    29    51 1   
    52    29    52 1   
    53    30    31 1   
    54    30    53 1   
    55    30    54 1   
    56    31    32 1   
    57    31    55 1   
    58    31    56 1   
    59    32    57 1   
    60    32    58 1   
    61    32    59 1   
@<TRIPOS>SUBSTRUCTURE
     1 743         1 TEMP              0 ****  ****    0 ROOT
