@<TRIPOS>MOLECULE
744
   46    48     1     0     0
SMALL
bcc


@<TRIPOS>ATOM
      1 C1           0.0000     0.0000     0.0000 c3         1 744      -0.014900
      2 C2           1.5280     0.0000     0.0000 c3         1 744      -0.041400
      3 C3           2.0860     0.0000     1.4280 c3         1 744       0.044700
      4 C4           1.5250     1.1720     2.2400 c3         1 744      -0.041400
      5 C5          -0.0030     1.1720     2.2370 c3         1 744      -0.014900
      6 C6          -0.5630     1.1590     0.8180 c3         1 744      -0.024400
      7 C7           4.4120    -0.8890     1.8960 c          1 744       0.668500
      8 C8           5.8180    -0.4570     1.5460 c3         1 744      -0.105400
      9 C9           5.6690     1.0040     1.1430 c3         1 744      -0.161700
     10 C10          4.2280     1.1430     0.6960 c3         1 744       0.065000
     11 N11          3.5450     0.0740     1.3910 n          1 744      -0.186800
     12 C12          5.8990     1.8780     2.3650 c          1 744       0.590100
     13 N13          6.3670     3.1340     2.0010 ns         1 744      -0.075100
     14 O14          5.6700     1.4520     3.4930 o          1 744      -0.588100
     15 O15          4.1310    -1.9250     2.4820 o          1 744      -0.643500
     16 C15          6.6920     4.2120     2.8570 ca         1 744      -0.066400
     17 C20          6.5460     5.5190     2.4190 ca         1 744      -0.124300
     18 C23          6.0470     5.8380     1.0470 c3         1 744       0.066200
     19 C19          6.8720     6.5690     3.2770 ca         1 744      -0.070000
     20 C18          7.3410     6.2990     4.5630 ca         1 744      -0.113000
     21 C17          7.4830     4.9790     4.9910 ca         1 744      -0.021600
     22 Cl1          8.0610     4.6470     6.5770 cl         1 744      -0.011400
     23 C16          7.1570     3.9290     4.1320 ca         1 744      -0.113000
     24 HN13         6.4900     3.2930     1.0210 hn         1 744       0.171500
     25 H9           6.3510     1.2570     0.3400 hc         1 744       0.045700
     26 H101         4.1490     1.0080    -0.3760 h1         1 744       0.021200
     27 H102         3.8300     2.1050     0.9970 h1         1 744       0.021200
     28 H81          6.4660    -0.5460     2.4100 hc         1 744       0.053700
     29 H82          6.1970    -1.0410     0.7160 hc         1 744       0.053700
     30 H3           1.7940    -0.9240     1.9110 h1         1 744       0.057700
     31 H41          1.8760     1.0930     3.2620 hc         1 744       0.018700
     32 H42          1.8790     2.1010     1.8100 hc         1 744       0.018700
     33 H4          -0.3570     2.0590     2.7470 hc         1 744       0.014700
     34 H5          -0.3560     0.2920     2.7620 hc         1 744       0.014700
     35 H7          -1.6410     1.0640     0.8650 hc         1 744       0.011700
     36 H6          -0.3060     2.0910     0.3300 hc         1 744       0.011700
     37 H8          -0.3520     0.0860    -1.0210 hc         1 744       0.014700
     38 H1          -0.3520    -0.9330     0.4230 hc         1 744       0.014700
     39 H2           1.8810     0.8840    -0.5170 hc         1 744       0.018700
     40 H10          1.8810    -0.8840    -0.5170 hc         1 744       0.018700
     41 H19          6.7620     7.5940     2.9450 ha         1 744       0.110000
     42 H18          7.5950     7.1150     5.2300 ha         1 744       0.116000
     43 H16          7.2650     2.9020     4.4590 ha         1 744       0.147000
     44 H231         5.0200     5.5080     0.9490 hc         1 744       0.008700
     45 H232         6.6590     5.3290     0.3120 hc         1 744       0.008700
     46 H233         6.1000     6.9070     0.8820 hc         1 744       0.008700
@<TRIPOS>BOND
     1     1     2 1   
     2     1     6 1   
     3     1    37 1   
     4     1    38 1   
     5     2     3 1   
     6     2    39 1   
     7     2    40 1   
     8     3     4 1   
     9     3    11 1   
    10     3    30 1   
    11     4     5 1   
    12     4    31 1   
    13     4    32 1   
    14     5     6 1   
    15     5    33 1   
    16     5    34 1   
    17     6    35 1   
    18     6    36 1   
    19     7     8 1   
    20     7    11 1   
    21     7    15 2   
    22     8     9 1   
    23     8    28 1   
    24     8    29 1   
    25     9    10 1   
    26     9    12 1   
    27     9    25 1   
    28    10    11 1   
    29    10    26 1   
    30    10    27 1   
    31    12    13 1   
    32    12    14 2   
    33    13    16 1   
    34    13    24 1   
    35    16    17 ar  
    36    16    23 ar  
    37    17    18 1   
    38    17    19 ar  
    39    18    44 1   
    40    18    45 1   
    41    18    46 1   
    42    19    20 ar  
    43    19    41 1   
    44    20    21 ar  
    45    20    42 1   
    46    21    22 1   
    47    21    23 ar  
    48    23    43 1   
@<TRIPOS>SUBSTRUCTURE
     1 744         1 TEMP              0 ****  ****    0 ROOT
