@<TRIPOS>MOLECULE
molecule
   41    44     1     0     0
SMALL
bcc


@<TRIPOS>ATOM
      1 C1           0.0000     0.0000     0.0000 ca         1 745       0.040700
      2 C2           1.3620     0.0000     0.0000 ca         1 745      -0.120000
      3 C3           2.0580     0.0000     1.2210 ca         1 745      -0.017000
      4 C4           1.3270    -0.0020     2.4360 ca         1 745      -0.082000
      5 C5          -0.0780    -0.0020     2.3960 ca         1 745      -0.120000
      6 C6          -0.7180    -0.0010     1.1940 ca         1 745      -0.112000
      7 C10          3.4640     0.0000     1.2540 ca         1 745      -0.086000
      8 C11          4.1150    -0.0020     2.4450 ca         1 745      -0.192000
      9 C12          3.4020    -0.0030     3.6560 ca         1 745      -0.182900
     10 C13          2.0180    -0.0080     3.6570 ca         1 745       0.007000
     11 C17          4.1370    -0.0050     4.9410 ce         1 745       0.547800
     12 N18          3.4800    -0.0070     6.0670 n2         1 745      -0.698100
     13 N19          5.5140    -0.0050     4.9470 nz         1 745      -0.798600
     14 C23         -0.7420     0.0010    -1.3120 cx         1 745      -0.115400
     15 C24         -1.6810    -1.1740    -1.5930 cx         1 745      -0.053400
     16 C25         -1.7890    -1.6540    -3.0170 ca         1 745      -0.064300
     17 C26         -2.2320    -0.7940    -4.0050 ca         1 745      -0.122500
     18 C27         -2.3270    -1.2320    -5.3120 ca         1 745      -0.121500
     19 C28         -1.9880    -2.5340    -5.6300 ca         1 745      -0.120000
     20 C29         -1.5500    -3.3960    -4.6430 ca         1 745      -0.121500
     21 C30         -1.4510    -2.9560    -3.3360 ca         1 745      -0.122500
     22 C7          -2.2570     0.2060    -1.2660 cx         1 745      -0.117400
     23 H2           2.0100     0.1250    -0.8590 ha         1 745       0.154000
     24 H5          -0.5850    -0.0040     3.3530 ha         1 745       0.145000
     25 H6          -1.7160     0.1730     1.5760 ha         1 745       0.165000
     26 H10          4.0160     0.0170     0.3220 ha         1 745       0.153000
     27 H11          5.1600     0.0070     2.1610 ha         1 745       0.134000
     28 H13          1.3380    -0.0010     4.5000 ha         1 745       0.170000
     29 H18          3.9780    -0.0080     6.9350 hn         1 745       0.427400
     30 H191         5.8440     0.0010     5.8920 hn         1 745       0.463467
     31 H192         5.8500    -0.8260     4.4830 hn         1 745       0.463467
     32 H23         -0.2550     0.4120    -2.1880 hc         1 745       0.103700
     33 H24         -1.7550    -1.8970    -0.7900 hc         1 745       0.090700
     34 H26         -2.4980     0.2260    -3.7550 ha         1 745       0.130000
     35 H27         -2.6720    -0.5570    -6.0860 ha         1 745       0.136000
     36 H28         -2.0640    -2.8780    -6.6540 ha         1 745       0.137000
     37 H29         -1.2840    -4.4160    -4.8920 ha         1 745       0.136000
     38 H30         -1.1080    -3.6310    -2.5610 ha         1 745       0.130000
     39 H71         -2.6810     0.7460    -2.1040 hc         1 745       0.084700
     40 H72         -2.6850     0.3120    -0.2770 hc         1 745       0.084700
     41 H193         5.8510     0.8100     4.4730 hn         1 745       0.463467
@<TRIPOS>BOND
     1     1     2 ar  
     2     1     6 ar  
     3     1    14 1   
     4     2     3 ar  
     5     2    23 1   
     6     3     4 ar  
     7     3     7 ar  
     8     4     5 ar  
     9     4    10 ar  
    10     5     6 ar  
    11     5    24 1   
    12     6    25 1   
    13     7     8 ar  
    14     7    26 1   
    15     8     9 ar  
    16     8    27 1   
    17     9    10 ar  
    18     9    11 1   
    19    10    28 1   
    20    11    12 2   
    21    11    13 1   
    22    12    29 1   
    23    13    30 1   
    24    13    31 1   
    25    14    15 1   
    26    14    22 1   
    27    14    32 1   
    28    15    16 1   
    29    15    22 1   
    30    15    33 1   
    31    16    17 ar  
    32    16    21 ar  
    33    17    18 ar  
    34    17    34 1   
    35    18    19 ar  
    36    18    35 1   
    37    19    20 ar  
    38    19    36 1   
    39    20    21 ar  
    40    20    37 1   
    41    21    38 1   
    42    22    39 1   
    43    22    40 1   
    44    41    13 1   
@<TRIPOS>SUBSTRUCTURE
     1 745         1 TEMP              0 ****  ****    0 ROOT
