@<TRIPOS>MOLECULE
745
   41    44     1     0     0
SMALL
bcc


@<TRIPOS>ATOM
      1 C1           0.0000     0.0000     0.0000 ca         1 745       0.037700
      2 C2           1.3620     0.0000     0.0000 ca         1 745      -0.091000
      3 C3           2.0580     0.0000     1.2210 ca         1 745      -0.010000
      4 C4           1.3270    -0.0020     2.4360 ca         1 745      -0.057000
      5 C5          -0.0780    -0.0020     2.3960 ca         1 745      -0.106000
      6 C6          -0.7180    -0.0010     1.1940 ca         1 745      -0.082000
      7 C10          3.4640     0.0000     1.2540 ca         1 745      -0.036000
      8 C11          4.1150    -0.0020     2.4450 ca         1 745      -0.182000
      9 C12          3.4020    -0.0030     3.6560 ca         1 745      -0.198900
     10 C13          2.0180    -0.0080     3.6570 ca         1 745      -0.018000
     11 C17          4.1370    -0.0050     4.9410 ce         1 745       0.217800
     12 N18          3.4800    -0.0070     6.0670 n2         1 745      -0.508100
     13 N19          5.5140    -0.0050     4.9470 nz         1 745       0.194400
     14 C23         -0.7420     0.0010    -1.3120 cx         1 745      -0.089400
     15 C24         -1.6810    -1.1740    -1.5930 cx         1 745      -0.015400
     16 C25         -1.7890    -1.6540    -3.0170 ca         1 745      -0.070300
     17 C26         -2.2320    -0.7940    -4.0050 ca         1 745      -0.100500
     18 C27         -2.3270    -1.2320    -5.3120 ca         1 745      -0.092000
     19 C28         -1.9880    -2.5340    -5.6300 ca         1 745      -0.093000
     20 C29         -1.5500    -3.3960    -4.6430 ca         1 745      -0.092000
     21 C30         -1.4510    -2.9560    -3.3360 ca         1 745      -0.100500
     22 C7          -2.2570     0.2060    -1.2660 cx         1 745      -0.077400
     23 H2           1.9530     0.0420    -0.9060 ha         1 745       0.127000
     24 H5          -0.7000    -0.0270     3.2830 ha         1 745       0.116000
     25 H6          -1.7390     0.1470     1.5240 ha         1 745       0.134000
     26 H10          4.0690    -0.0010     0.3560 ha         1 745       0.121000
     27 H11          5.1610    -0.0010     2.1630 ha         1 745       0.118000
     28 H13          1.3290    -0.0260     4.4930 ha         1 745       0.122000
     29 H18          2.4800    -0.0070     6.0630 hn         1 745       0.378400
     30 H191         5.8510     0.8120     4.4780 hn         1 745       0.219800
     31 H192         5.8500    -0.8220     4.4760 hn         1 745       0.219800
     32 H23         -0.2550     0.4120    -2.1880 hc         1 745       0.077700
     33 H24         -1.7550    -1.8970    -0.7900 hc         1 745       0.061700
     34 H26         -2.4980     0.2260    -3.7550 ha         1 745       0.107000
     35 H27         -2.6720    -0.5570    -6.0860 ha         1 745       0.107500
     36 H28         -2.0640    -2.8780    -6.6540 ha         1 745       0.108000
     37 H29         -1.2850    -4.4160    -4.8920 ha         1 745       0.107500
     38 H30         -1.1080    -3.6310    -2.5610 ha         1 745       0.107000
     39 H71         -2.6850     0.3120    -0.2770 hc         1 745       0.058700
     40 H72         -2.6810     0.7460    -2.1040 hc         1 745       0.058700
     41 H193         5.8440    -0.0130     5.8920 hn         1 745       0.219800
@<TRIPOS>BOND
     1     1     2 ar  
     2     1     6 ar  
     3     1    14 1   
     4     2     3 ar  
     5     2    23 1   
     6     3     4 ar  
     7     3     7 ar  
     8     4     5 ar  
     9     4    10 ar  
    10     5     6 ar  
    11     5    24 1   
    12     6    25 1   
    13     7     8 ar  
    14     7    26 1   
    15     8     9 ar  
    16     8    27 1   
    17     9    10 ar  
    18     9    11 1   
    19    10    28 1   
    20    11    12 2   
    21    11    13 1   
    22    12    29 1   
    23    13    30 1   
    24    13    31 1   
    25    13    41 1   
    26    14    15 1   
    27    14    22 1   
    28    14    32 1   
    29    15    16 1   
    30    15    22 1   
    31    15    33 1   
    32    16    17 ar  
    33    16    21 ar  
    34    17    18 ar  
    35    17    34 1   
    36    18    19 ar  
    37    18    35 1   
    38    19    20 ar  
    39    19    36 1   
    40    20    21 ar  
    41    20    37 1   
    42    21    38 1   
    43    22    39 1   
    44    22    40 1   
@<TRIPOS>SUBSTRUCTURE
     1 745         1 TEMP              0 ****  ****    0 ROOT
