@<TRIPOS>MOLECULE
molecule
   80    84     1     0     0
SMALL
bcc


@<TRIPOS>ATOM
      1 C1           0.0000     0.0000     0.0000 ca         1 746      -0.021800
      2 C2           1.3930     0.0000     0.0000 ca         1 746      -0.080300
      3 C3           2.1490     0.0020    -1.3040 c3         1 746      -0.044800
      4 C4           2.0820     0.0000     1.2040 ca         1 746       0.055600
      5 C5           1.3830    -0.0010     2.4040 ca         1 746      -0.116000
      6 C7           0.0000    -0.0010     2.4040 ca         1 746      -0.119000
      7 C9          -0.6930     0.0050     1.2110 ca         1 746      -0.131000
      8 C11         -0.7430     0.0000    -1.2830 cc         1 746       0.120400
      9 N12         -0.4940     0.9590    -2.1850 nc         1 746      -0.609300
     10 C13         -1.1370     0.9860    -3.3310 cd         1 746       0.582200
     11 C14         -2.1370    -0.0510    -3.6160 c          1 746       0.553200
     12 O15         -2.7480    -0.0520    -4.6710 o          1 746      -0.643500
     13 N16         -2.3640    -1.0040    -2.6860 n          1 746      -0.305000
     14 C17         -1.6600    -0.9780    -1.5210 cd         1 746      -0.086400
     15 N19          3.4800     0.0000     1.2090 ns         1 746      -0.473100
     16 C21          4.1510    -0.6440     2.1850 c          1 746       0.675700
     17 O22          3.5440    -1.3030     3.0070 o          1 746      -0.597100
     18 C23          5.6250    -0.5480     2.2570 ca         1 746      -0.157600
     19 C24          6.3220    -1.2130     3.2660 ca         1 746      -0.083000
     20 C26          7.6970    -1.1200     3.3270 ca         1 746      -0.138000
     21 C28          8.3850    -0.3690     2.3900 ca         1 746      -0.042300
     22 C29          7.6990     0.2930     1.3880 ca         1 746      -0.138000
     23 C31          6.3250     0.2040     1.3110 ca         1 746      -0.083000
     24 C33          9.8870    -0.2730     2.4630 c3         1 746      -0.029700
     25 C34         10.4940    -1.6710     2.3380 c3         1 746      -0.081100
     26 C38         10.3970     0.6100     1.3220 c3         1 746      -0.081100
     27 C42         10.2940     0.3420     3.8040 c3         1 746      -0.081100
     28 C46         -0.0120     3.0270    -3.9390 ca         1 746       0.181600
     29 N47         -0.8740     1.9830    -4.2620 nu         1 746      -0.698600
     30 C48          0.7060     3.6700    -4.9430 ca         1 746      -0.168000
     31 C49          1.5540     4.7060    -4.6280 ca         1 746      -0.074500
     32 C50          1.6960     5.1110    -3.2970 ca         1 746      -0.174600
     33 C51          0.9760     4.4620    -2.2910 ca         1 746      -0.074500
     34 C52          0.1270     3.4270    -2.6130 ca         1 746      -0.168000
     35 C60         -3.3530    -2.0570    -2.9310 c3         1 746       0.089300
     36 C71          2.6070     6.2200    -2.9550 c          1 746       0.681700
     37 O72          2.2790     7.0410    -2.1190 o          1 746      -0.606100
     38 C81          5.5680     4.8330    -4.3370 c3         1 746       0.119900
     39 C82          4.1810     5.4030    -4.6510 c3         1 746       0.059500
     40 N83          3.8020     6.3260    -3.5690 n          1 746      -0.491800
     41 C84          4.7660     7.3660    -3.1780 c3         1 746       0.059500
     42 C85          6.1240     6.7010    -2.9350 c3         1 746       0.119900
     43 O86          6.4720     5.9090    -4.0750 os         1 746      -0.421600
     44 H3           2.5140     1.0010    -1.5080 hc         1 746       0.046367
     45 H3A          2.9860    -0.6820    -1.2370 hc         1 746       0.046367
     46 H3B          1.4890    -0.3120    -2.1040 hc         1 746       0.046367
     47 H5           1.9220    -0.0030     3.3440 ha         1 746       0.162000
     48 H7          -0.5410     0.0010     3.3420 ha         1 746       0.136000
     49 H9          -1.7760     0.0050     1.2140 ha         1 746       0.130000
     50 H17         -1.8380    -1.7390    -0.7710 h4         1 746       0.167000
     51 HN19         3.9830     0.5130     0.5110 hn         1 746       0.328500
     52 H24          5.7850    -1.8020     4.0000 ha         1 746       0.140000
     53 H26          8.2400    -1.6360     4.1090 ha         1 746       0.140000
     54 H29          8.2440     0.8780     0.6560 ha         1 746       0.140000
     55 H31          5.7900     0.7230     0.5250 ha         1 746       0.140000
     56 H34         10.2990    -2.2320     3.2430 hc         1 746       0.038589
     57 H34A        11.5640    -1.5870     2.1890 hc         1 746       0.038589
     58 H34B        10.0510    -2.1820     1.4920 hc         1 746       0.038589
     59 H38         10.1050     0.1770     0.3720 hc         1 746       0.038589
     60 H38A        11.4770     0.6750     1.3710 hc         1 746       0.038589
     61 H38B         9.9710     1.6010     1.4130 hc         1 746       0.038589
     62 H42         10.1070    -0.3690     4.5990 hc         1 746       0.038589
     63 H42A         9.7140     1.2410     3.9800 hc         1 746       0.038589
     64 H42B        11.3480     0.5910     3.7810 hc         1 746       0.038589
     65 HN47        -1.2350     1.9050    -5.1910 hn         1 746       0.473800
     66 H48          0.5950     3.3560    -5.9740 ha         1 746       0.154500
     67 H49          2.1120     5.2070    -5.4100 ha         1 746       0.147000
     68 H51          1.0840     4.7740    -1.2590 ha         1 746       0.147000
     69 H52         -0.4330     2.9240    -1.8340 ha         1 746       0.154500
     70 H60         -4.3390    -1.6140    -3.0140 h1         1 746       0.059700
     71 H60A        -3.3430    -2.7610    -2.1080 h1         1 746       0.059700
     72 H60B        -3.1100    -2.5740    -3.8510 h1         1 746       0.059700
     73 H81A         5.9240     4.2610    -5.1860 h1         1 746       0.053700
     74 H82          3.4610     4.5960    -4.7100 h1         1 746       0.069200
     75 H82A         4.2130     5.9400    -5.5920 h1         1 746       0.069200
     76 H84          4.4300     7.8500    -2.2690 h1         1 746       0.069200
     77 H84A         4.8560     8.0960    -3.9740 h1         1 746       0.069200
     78 H85          6.8770     7.4640    -2.7820 h1         1 746       0.053700
     79 H85A         6.0630     6.0650    -2.0600 h1         1 746       0.053700
     80 H81          5.5060     4.1940    -3.4640 h1         1 746       0.053700
@<TRIPOS>BOND
     1     2     1 ar  
     2     1     8 1   
     3     1     7 ar  
     4     3     2 1   
     5     4     2 ar  
     6     3    44 1   
     7     3    45 1   
     8     3    46 1   
     9    15     4 1   
    10     4     5 ar  
    11     5     6 ar  
    12     5    47 1   
    13     6     7 ar  
    14     6    48 1   
    15     7    49 1   
    16    14     8 2   
    17     8     9 1   
    18     9    10 2   
    19    11    10 1   
    20    10    29 1   
    21    13    11 1   
    22    11    12 2   
    23    35    13 1   
    24    14    13 1   
    25    14    50 1   
    26    16    15 1   
    27    15    51 1   
    28    18    16 1   
    29    16    17 2   
    30    19    18 ar  
    31    23    18 ar  
    32    20    19 ar  
    33    19    52 1   
    34    21    20 ar  
    35    20    53 1   
    36    24    21 1   
    37    21    22 ar  
    38    22    23 ar  
    39    22    54 1   
    40    23    55 1   
    41    26    24 1   
    42    27    24 1   
    43    24    25 1   
    44    25    56 1   
    45    25    57 1   
    46    25    58 1   
    47    26    59 1   
    48    26    60 1   
    49    26    61 1   
    50    27    62 1   
    51    27    63 1   
    52    27    64 1   
    53    29    28 1   
    54    28    30 ar  
    55    28    34 ar  
    56    29    65 1   
    57    30    31 ar  
    58    30    66 1   
    59    31    32 ar  
    60    31    67 1   
    61    32    33 ar  
    62    32    36 1   
    63    34    33 ar  
    64    33    68 1   
    65    34    69 1   
    66    35    70 1   
    67    35    71 1   
    68    35    72 1   
    69    36    37 2   
    70    36    40 1   
    71    39    38 1   
    72    43    38 1   
    73    38    80 1   
    74    38    73 1   
    75    40    39 1   
    76    39    74 1   
    77    39    75 1   
    78    41    40 1   
    79    41    42 1   
    80    41    76 1   
    81    41    77 1   
    82    42    43 1   
    83    42    78 1   
    84    42    79 1   
@<TRIPOS>SUBSTRUCTURE
     1 746         1 TEMP              0 ****  ****    0 ROOT
