@<TRIPOS>MOLECULE
747
   29    31     1     0     0
SMALL
bcc


@<TRIPOS>ATOM
      1 F1           0.0000     0.0000     0.0000 f          1 747      -0.081000
      2 C2           1.3520     0.0000     0.0000 ca         1 747       0.049500
      3 C1           2.0460     0.0000     1.2060 ca         1 747       0.046000
      4 O1           1.3630     0.0000     2.3800 oh         1 747      -0.228000
      5 C3           2.0400    -0.0060    -1.1930 ca         1 747      -0.110500
      6 C4           3.4420    -0.0070    -1.1920 ca         1 747      -0.065000
      7 C5           4.1360    -0.0020     0.0270 ca         1 747      -0.110500
      8 C            3.4380    -0.0020     1.2150 ca         1 747       0.049500
      9 F            4.1050    -0.0020     2.3890 f          1 747      -0.081000
     10 C6           4.1780    -0.0140    -2.4560 c2         1 747       0.107000
     11 C7           3.4970    -0.1460    -3.6520 c2         1 747      -0.217000
     12 C10          4.0860    -0.2770    -4.9960 c2         1 747       0.238000
     13 C12          1.8780    -0.3190    -5.0960 c3         1 747      -0.133000
     14 N13          2.1500    -0.1870    -3.8240 n2         1 747      -0.105000
     15 O14          5.2680    -0.2920    -5.2860 o          1 747      -0.347000
     16 N15          3.0360    -0.3780    -5.8410 n          1 747       0.120000
     17 C16          3.1140    -0.5240    -7.2970 c3         1 747      -0.067000
     18 C17          0.5220    -0.3960    -5.6570 c2         1 747      -0.377000
     19 N18         -0.5080    -0.3330    -4.8720 n2         1 747       0.165000
     20 O19         -1.8150    -0.4070    -5.4120 oh         1 747      -0.216000
     21 H1           1.2340     0.8880     2.6690 ho         1 747       0.209000
     22 H2           1.4980    -0.0100    -2.1320 ha         1 747       0.158000
     23 H3           5.2200    -0.0030     0.0340 ha         1 747       0.158000
     24 H4           5.2540     0.1160    -2.4570 ha         1 747       0.122000
     25 H5           2.7050     0.3600    -7.7710 h1         1 747       0.065667
     26 H6           4.1490    -0.6460    -7.5930 h1         1 747       0.065667
     27 H7           2.5470    -1.3940    -7.6040 h1         1 747       0.065667
     28 H8           1.0020     0.5220    -5.3420 DU         1 747       0.304000
     29 H9          -2.4430    -0.4490    -4.7090 ho         1 747       0.216000
@<TRIPOS>BOND
     1     1     2 1   
     2     2     3 1   
     3     2     5 1   
     4     3     4 1   
     5     3     8 1   
     6     4    21 1   
     7     5     6 1   
     8     5    22 1   
     9     6     7 1   
    10     6    10 1   
    11     7     8 1   
    12     7    23 1   
    13     8     9 1   
    14    10    11 1   
    15    10    24 1   
    16    11    12 1   
    17    11    14 1   
    18    12    15 1   
    19    12    16 1   
    20    13    14 1   
    21    13    16 1   
    22    13    18 1   
    23    13    28 1   
    24    16    17 1   
    25    17    25 1   
    26    17    26 1   
    27    17    27 1   
    28    18    19 1   
    29    18    28 1   
    30    19    20 1   
    31    20    29 1   
@<TRIPOS>SUBSTRUCTURE
     1 747         1 TEMP              0 ****  ****    0 ROOT
