@<TRIPOS>MOLECULE
molecule
   29    30     1     0     0
SMALL
bcc


@<TRIPOS>ATOM
      1 F1           0.0000     0.0000     0.0000 f          1 747      -0.123900
      2 C2           1.3520     0.0000     0.0000 ca         1 747       0.121400
      3 C1           2.0460     0.0000     1.2060 ca         1 747       0.047100
      4 O1           1.3630     0.0000     2.3800 oh         1 747      -0.497100
      5 C3           2.0400    -0.0060    -1.1930 ca         1 747      -0.143500
      6 C4           3.4420    -0.0070    -1.1920 ca         1 747      -0.056800
      7 C5           4.1360    -0.0020     0.0270 ca         1 747      -0.143500
      8 C            3.4380    -0.0020     1.2150 ca         1 747       0.121400
      9 F            4.1050    -0.0020     2.3890 f          1 747      -0.123900
     10 C6           4.1780    -0.0140    -2.4560 ce         1 747       0.042800
     11 C7           3.4970    -0.1460    -3.6520 cd         1 747      -0.024600
     12 C10          4.0860    -0.2770    -4.9960 c          1 747       0.676700
     13 C12          1.8780    -0.3190    -5.0960 cc         1 747       0.421600
     14 N13          2.1500    -0.1870    -3.8240 nd         1 747      -0.596300
     15 O14          5.2680    -0.2920    -5.2860 o          1 747      -0.587500
     16 N15          3.0360    -0.3780    -5.8410 n          1 747      -0.411300
     17 C16          3.1140    -0.5240    -7.2970 c3         1 747       0.101300
     18 C17          0.5220    -0.3960    -5.6570 ce         1 747       0.340900
     19 N18         -0.5080    -0.3330    -4.8720 n2         1 747      -0.370200
     20 O19         -1.8150    -0.4070    -5.4120 oh         1 747      -0.381500
     21 H1           1.2050     0.8890     2.6520 ho         1 747       0.426000
     22 H2           1.4980    -0.0100    -2.1320 ha         1 747       0.186500
     23 H3           5.2200    -0.0030     0.0340 ha         1 747       0.186500
     24 H4           5.2620    -0.0000    -2.4500 ha         1 747       0.162000
     25 H5           2.6110     0.3100    -7.7710 h1         1 747       0.056033
     26 H6           4.1530    -0.5390    -7.6030 h1         1 747       0.056033
     27 H7           2.6370    -1.4500    -7.5940 h1         1 747       0.056033
     28 H8           0.3820    -0.5060    -6.7250 h4         1 747       0.015800
     29 H9          -2.4470    -0.3460    -4.7140 ho         1 747       0.443000
@<TRIPOS>BOND
     1     9     8 1   
     2    20    19 1   
     3     4     3 1   
     4     8     3 ar  
     5     8     7 ar  
     6    18    19 2   
     7    18    13 1   
     8     3     2 ar  
     9     7     6 ar  
    10    14    13 2   
    11    14    11 1   
    12    13    16 1   
    13     2     1 1   
    14     2     5 ar  
    15     6     5 ar  
    16     6    10 1   
    17    16    17 1   
    18    16    12 1   
    19    11    10 2   
    20    11    12 1   
    21    12    15 2   
    22     4    21 1   
    23     5    22 1   
    24     7    23 1   
    25    10    24 1   
    26    17    25 1   
    27    17    26 1   
    28    17    27 1   
    29    18    28 1   
    30    20    29 1   
@<TRIPOS>SUBSTRUCTURE
     1 747         1 TEMP              0 ****  ****    0 ROOT
