@<TRIPOS>MOLECULE
748
   78    82     1     0     0
SMALL
bcc


@<TRIPOS>ATOM
      1 C4           0.0000     0.0000     0.0000 cp         1 748       0.532800
      2 C5           1.3970     0.0000     0.0000 ca         1 748      -0.413600
      3 C6           2.0550     0.0000     1.2170 ca         1 748       0.492200
      4 N1           1.3490    -0.0000     2.3350 nb         1 748      -0.690000
      5 N3          -0.6460    -0.0010     1.1640 nb         1 748      -0.689000
      6 C2           0.0240    -0.0010     2.3060 ca         1 748       0.708900
      7 CAB         11.2520     8.0690     7.0510 c3         1 748       0.181600
      8 CAC          8.9790     7.5550     6.3970 c3         1 748       0.181600
      9 CAF          9.9470     6.5040    11.6260 ca         1 748      -0.224300
     10 CAG         -2.8060     0.0180    -2.4980 ca         1 748      -0.231300
     11 CAH          9.5780     5.9860    12.8540 ca         1 748       0.423200
     12 CAI         -2.0650     0.0190    -3.6650 ca         1 748       0.417200
     13 CAK         10.0230     5.6610    10.5310 ca         1 748      -0.102000
     14 CAL         -2.1510     0.0110    -1.2790 ca         1 748      -0.027000
     15 CAM          7.0360     2.7790     6.3960 ca         1 748      -0.097000
     16 CAN          7.7190     1.0400     7.9030 ca         1 748      -0.097000
     17 CAO          0.1210    -0.8400     6.9910 ca         1 748      -0.067000
     18 CAQ          1.3590    -0.2430     7.1300 ca         1 748      -0.113000
     19 CAR          5.7720     2.2290     6.3230 ca         1 748      -0.061000
     20 CAS          6.4610     0.4770     7.8340 ca         1 748      -0.061000
     21 CAT          9.3650     3.8620    11.9880 ca         1 748       0.464200
     22 CAU         -0.0790     0.0070    -2.4980 ca         1 748       0.421200
     23 CAV          1.2480     0.5250     4.8550 ca         1 748      -0.141000
     24 CAW         10.3260     5.8790     7.5090 c3         1 748       0.116800
     25 CAX          9.1090     5.1620     8.0970 c3         1 748      -0.010000
     26 CBF          4.1240     0.4780     6.9720 c          1 748       0.584700
     27 CBG          9.8000     3.3580     9.5820 c          1 748       0.620700
     28 CBH          8.0090     2.1840     7.1810 ca         1 748      -0.103300
     29 CBI         -0.5550    -0.7620     5.7890 ca         1 748      -0.129300
     30 CBJ          1.9260     0.4410     6.0620 ca         1 748      -0.081400
     31 CBK          5.4760     1.0720     7.0440 ca         1 748      -0.155600
     32 CBL          9.7250     4.3060    10.7150 ca         1 748      -0.274900
     33 CBM         -0.7530     0.0060    -1.2780 cp         1 748      -0.286800
     34 CBO          0.0100    -0.0850     4.7150 ca         1 748       0.009600
     35 NAZ          9.2970     4.7050    12.9970 nb         1 748      -0.589000
     36 NBA         -0.7460     0.0140    -3.6330 nb         1 748      -0.587000
     37 NBE         -0.6780    -0.0020     3.5000 nu         1 748      -0.283300
     38 NBQ         10.0370     7.3140     7.3860 n3         1 748      -0.546600
     39 NBR          9.4430     3.7570     8.3460 n          1 748      -0.139800
     40 OAD          3.8680    -0.5300     7.6010 o          1 748      -0.635100
     41 OAE         10.1840     2.2200     9.7660 o          1 748      -0.642100
     42 H1           1.9520     0.0000    -0.9310 ha         1 748       0.134000
     43 H2           3.1380     0.0000     1.2530 h4         1 748      -0.017900
     44 H3          -2.6570    -0.6530     5.4700 hc         1 748       0.007700
     45 H4          -1.8870    -2.0980     4.8020 hc         1 748       0.007700
     46 H5          -2.1450    -1.9600     6.5460 hc         1 748       0.007700
     47 H6          11.0270     9.1290     7.0400 h1         1 748       0.004033
     48 H7          12.0170     7.8700     7.7920 h1         1 748       0.004033
     49 H8          11.6070     7.7660     6.0740 h1         1 748       0.004033
     50 H9           9.0400     8.5770     6.0430 h1         1 748       0.004033
     51 H10          8.0110     7.3890     6.8550 h1         1 748       0.004033
     52 H11          9.1040     6.8760     5.5620 h1         1 748       0.004033
     53 H12         10.1730     7.5580    11.5220 ha         1 748       0.117000
     54 H13         -3.8890     0.0220    -2.5370 ha         1 748       0.115000
     55 H14          9.5130     6.6450    13.7120 h4         1 748      -0.020900
     56 H15         -2.5750     0.0240    -4.6210 h4         1 748      -0.020900
     57 H16         10.3080     6.0410     9.5570 ha         1 748       0.160000
     58 H17         -2.7070     0.0100    -0.3490 ha         1 748       0.128000
     59 H18          7.2680     3.6760     5.8350 ha         1 748       0.117500
     60 H19          8.4850     0.5790     8.5150 ha         1 748       0.117500
     61 H20         -0.3190    -1.3730     7.8250 ha         1 748       0.108000
     62 H21          1.8880    -0.3070     8.0730 ha         1 748       0.146000
     63 H22          5.0120     2.6960     5.7080 ha         1 748       0.116000
     64 H23          6.2360    -0.4200     8.3980 ha         1 748       0.116000
     65 H24          9.1290     2.8160    12.1450 h4         1 748      -0.002900
     66 H25          1.0050     0.0030    -2.5120 h4         1 748      -0.013900
     67 H26          1.6900     1.0560     4.0200 ha         1 748       0.145000
     68 H27         11.1790     5.7370     8.1620 h1         1 748       0.023200
     69 H28         10.5480     5.4700     6.5310 h1         1 748       0.023200
     70 H29          8.2840     5.2180     7.3970 h1         1 748       0.053700
     71 H30          8.8250     5.6370     9.0280 h1         1 748       0.053700
     72 H31         10.1150     2.0030     7.4250 h1         1 748       0.038700
     73 H32          9.6120     3.2850     6.3150 h1         1 748       0.038700
     74 H33          3.3530     1.9360     5.7700 hn         1 748       0.170500
     75 H34         -1.6730     0.1040     3.4950 hn         1 748       0.296800
     76 NBD          3.1750     1.0540     6.2080 ns         1 748      -0.032100
     77 CAA         -1.9060    -1.4140     5.6410 c3         1 748       0.065200
     78 CAY          9.3880     2.7860     7.2500 c3         1 748       0.105300
@<TRIPOS>BOND
     1     1     2 ar  
     2     1     5 ar  
     3     1    33 1   
     4     2     3 ar  
     5     2    42 1   
     6     3     4 ar  
     7     3    43 1   
     8     4     6 ar  
     9     5     6 ar  
    10     6    37 1   
    11     7    38 1   
    12     7    47 1   
    13     7    48 1   
    14     7    49 1   
    15     8    38 1   
    16     8    50 1   
    17     8    51 1   
    18     8    52 1   
    19     9    11 ar  
    20     9    13 ar  
    21     9    53 1   
    22    10    12 ar  
    23    10    14 ar  
    24    10    54 1   
    25    11    35 ar  
    26    11    55 1   
    27    12    36 ar  
    28    12    56 1   
    29    13    32 ar  
    30    13    57 1   
    31    14    33 ar  
    32    14    58 1   
    33    15    19 ar  
    34    15    28 ar  
    35    15    59 1   
    36    16    20 ar  
    37    16    28 ar  
    38    16    60 1   
    39    17    18 ar  
    40    17    29 ar  
    41    17    61 1   
    42    18    30 ar  
    43    18    62 1   
    44    19    31 ar  
    45    19    63 1   
    46    20    31 ar  
    47    20    64 1   
    48    21    32 ar  
    49    21    35 ar  
    50    21    65 1   
    51    22    33 ar  
    52    22    36 ar  
    53    22    66 1   
    54    23    30 ar  
    55    23    34 ar  
    56    23    67 1   
    57    24    25 1   
    58    24    38 1   
    59    24    68 1   
    60    24    69 1   
    61    25    39 1   
    62    25    70 1   
    63    25    71 1   
    64    26    31 1   
    65    26    40 2   
    66    26    76 1   
    67    27    32 1   
    68    27    39 1   
    69    27    41 2   
    70    28    78 1   
    71    29    34 ar  
    72    29    77 1   
    73    30    76 1   
    74    34    37 1   
    75    37    75 1   
    76    39    78 1   
    77    44    77 1   
    78    45    77 1   
    79    46    77 1   
    80    72    78 1   
    81    73    78 1   
    82    74    76 1   
@<TRIPOS>SUBSTRUCTURE
     1 748         1 TEMP              0 ****  ****    0 ROOT
