@<TRIPOS>MOLECULE
molecule
   63    62     1     0     0
SMALL
bcc


@<TRIPOS>ATOM
      1 CAA          0.0000     0.0000     0.0000 c3         1 749      -0.047400
      2 CAB          2.2600     0.0000     1.3060 c3         1 749      -0.047400
      3 CAC          2.9780     1.2260   -13.4330 c3         1 749      -0.047400
      4 CAD          0.8490     1.6010   -11.9710 c3         1 749      -0.047400
      5 CAE          1.6460     0.6010    -5.7310 c3         1 749      -0.092400
      6 CAF          2.4350     5.9840    -8.2070 c3         1 749      -0.092400
      7 OAG         -2.7070     3.9740    -7.8130 o          1 749      -0.895833
      8 OAH         -2.8080     4.0680    -4.7370 o          1 749      -0.895833
      9 OAI         -0.6040     3.2260    -8.9920 o          1 749      -0.895833
     10 OAJ         -1.0080     5.7520    -8.3860 o          1 749      -0.895833
     11 OAK         -1.7160     6.2220    -5.4670 o          1 749      -0.895833
     12 OAL         -0.5670     4.9050    -3.6470 o          1 749      -0.895833
     13 CAM          2.1620     0.0010    -1.1340 c2         1 749      -0.337200
     14 CAN          2.8220     3.0290   -11.7940 c2         1 749      -0.337200
     15 CAO          0.2120     2.2480    -4.6370 c2         1 749      -0.352200
     16 CAP          1.7400     3.7900    -7.3930 c2         1 749      -0.352200
     17 CAQ          1.4140     0.1240    -2.4370 c3         1 749      -0.060200
     18 CAR          2.1360     3.7370   -10.6540 c3         1 749      -0.060200
     19 CAS         -0.4530     2.4690    -5.9710 c3         1 749      -0.035200
     20 CAT          0.9610     4.5000    -6.3170 c3         1 749      -0.035200
     21 CAU          1.9750     1.3010    -3.2380 c3         1 749       0.025300
     22 CAV          3.0680     3.7740    -9.4410 c3         1 749       0.025300
     23 CAW          1.5070     0.0000     0.0000 c2         1 749      -0.164400
     24 CAX          2.2460     2.0030   -12.3700 c2         1 749      -0.164400
     25 CAY          1.2260     1.4250    -4.5400 c2         1 749      -0.157900
     26 CAZ          2.3820     4.4810    -8.3020 c2         1 749      -0.157900
     27 CBA         -0.4730     3.9660    -6.2890 c3         1 749      -0.237400
     28 PBB         -1.2530     4.2310    -7.9150 p5         1 749       1.114200
     29 PBC         -1.4250     4.8460    -5.0070 p5         1 749       1.114200
     30 HAA         -0.3610     0.9500    -0.3750 hc         1 749       0.023283
     31 HAAA        -0.3610    -0.8000    -0.6350 hc         1 749       0.023283
     32 HAAB        -0.3610    -0.1500     1.0100 hc         1 749       0.023283
     33 HAB          1.9710    -0.8650     1.8900 hc         1 749       0.023283
     34 HABA         3.3250    -0.0370     1.1080 hc         1 749       0.023283
     35 HABB         2.0270     0.9030     1.8570 hc         1 749       0.023283
     36 HAC          2.7980     0.1660   -13.2950 hc         1 749       0.023283
     37 HACA         2.6240     1.5280   -14.4110 hc         1 749       0.023283
     38 HACB         4.0410     1.4240   -13.3570 hc         1 749       0.023283
     39 HAD          0.8690     1.1640   -10.9800 hc         1 749       0.023283
     40 HADA         0.4660     0.8750   -12.6780 hc         1 749       0.023283
     41 HADB         0.2090     2.4750   -11.9680 hc         1 749       0.023283
     42 HAE          2.2940    -0.2030    -5.4030 hc         1 749       0.023700
     43 HAEA         2.1770     1.2290    -6.4350 hc         1 749       0.023700
     44 HAEB         0.7680     0.1840    -6.2090 hc         1 749       0.023700
     45 HAF          2.7260     6.2730    -7.2040 hc         1 749       0.023700
     46 HAFA         1.4580     6.3950    -8.4320 hc         1 749       0.023700
     47 HAFB         3.1590     6.3660    -8.9170 hc         1 749       0.023700
     48 HAM          1.6980    -0.8530    -1.6120 ha         1 749       0.161000
     49 HAN          3.8250     3.3170   -12.0830 ha         1 749       0.161000
     50 HAO         -0.5420     1.5690    -5.0180 ha         1 749       0.330000
     51 HAP          2.2140     4.1800    -6.5010 ha         1 749       0.330000
     52 HAQ          0.3630     0.2930    -2.2360 hc         1 749       0.064700
     53 HAQA         1.5300    -0.7890    -3.0080 hc         1 749       0.064700
     54 HAR          1.2270     3.2070   -10.3950 hc         1 749       0.064700
     55 HARA         1.8910     4.7490   -10.9530 hc         1 749       0.064700
     56 HAS         -1.4680     2.0940    -5.9350 hc         1 749       0.048450
     57 HASA         0.0990     1.9440    -6.7410 hc         1 749       0.048450
     58 HAT          1.4300     4.3260    -5.3570 hc         1 749       0.048450
     59 HATA         0.9470     5.5630    -6.5240 hc         1 749       0.048450
     60 HAU          1.8590     2.2140    -2.6670 hc         1 749       0.015950
     61 HAUA         3.0260     1.1320    -3.4400 hc         1 749       0.015950
     62 HAV          3.9770     4.3040    -9.7000 hc         1 749       0.015950
     63 HAVA         3.3140     2.7620    -9.1430 hc         1 749       0.015950
@<TRIPOS>BOND
     1     1    23 1
     2     1    30 1
     3     1    31 1
     4     1    32 1
     5     2    23 1
     6     2    33 1
     7     2    34 1
     8     2    35 1
     9    24     3 1
    10     3    36 1
    11     3    37 1
    12     3    38 1
    13    24     4 1
    14     4    39 1
    15     4    40 1
    16     4    41 1
    17    25     5 1
    18     5    42 1
    19     5    43 1
    20     5    44 1
    21    26     6 1
    22     6    45 1
    23     6    46 1
    24     6    47 1
    25     7    28 1
    26    29     8 1
    27    28     9 1
    28    28    10 1
    29    11    29 1
    30    29    12 1
    31    23    13 2
    32    13    17 1
    33    13    48 1
    34    18    14 1
    35    14    24 2
    36    14    49 1
    37    15    19 1
    38    15    25 2
    39    15    50 1
    40    20    16 1
    41    16    26 2
    42    16    51 1
    43    17    21 1
    44    17    52 1
    45    17    53 1
    46    22    18 1
    47    18    54 1
    48    18    55 1
    49    19    27 1
    50    19    56 1
    51    19    57 1
    52    27    20 1
    53    20    58 1
    54    20    59 1
    55    21    25 1
    56    21    60 1
    57    21    61 1
    58    26    22 1
    59    22    62 1
    60    22    63 1
    61    28    27 1
    62    29    27 1
@<TRIPOS>SUBSTRUCTURE
     1 749         1 TEMP              0 ****  ****    0 ROOT
