@<TRIPOS>MOLECULE
749
   63    61     1     0     0
SMALL
bcc


@<TRIPOS>ATOM
      1 CAA         2.6110    0.4200   -0.3940 c3        1 749     -0.152500
      2 CAB         4.5990   -0.5010   -1.6190 c3        1 749     -0.152500
      3 CAC         5.5170    0.6960  -11.6370 c3        1 749     -0.018000
      4 CAD         4.5610    2.8060  -12.5090 c3        1 749     -0.018000
      5 CAE        -1.8030    0.5880   -4.0270 c3        1 749     -0.123000
      6 CAF         1.9250    4.9820   -8.4850 c3        1 749     -0.145000
      7 OAG        -4.5270    4.0670   -6.2760 o         1 749     -0.939000
      8 OAH        -2.3780    6.1700   -3.6520 o         1 749     -1.222000
      9 OAI        -3.0820    3.2210   -8.0830 oh        1 749     -0.851000
     10 OAJ        -3.4770    5.5740   -8.0430 o         1 749     -0.939000
     11 OAK        -0.9400    7.3260   -5.3850 o         1 749     -1.222000
     12 OAL        -0.0330    5.3750   -4.0680 o         1 749     -1.222000
     13 CAM         2.6830    0.4300   -2.8710 c2        1 749     -0.075000
     14 CAN         3.6530    1.7780  -10.3960 c2        1 749      0.024000
     15 CAO        -0.6880    2.6250   -4.9750 c2        1 749      0.033000
     16 CAP         0.0050    3.6560   -7.6380 c2        1 749     -0.112000
     17 CAQ         1.3620    1.0730   -3.0320 c3        1 749     -0.166000
     18 CAR         2.6870    2.6740  -10.0640 c2        1 749     -0.409000
     19 CAS        -1.8900    3.4860   -5.0930 c3        1 749     -0.050000
     20 CAT        -0.6990    4.8050   -6.9750 c3        1 749     -0.047000
     21 CAU         0.6790    0.6800   -4.3360 c3        1 749     -0.074000
     22 CAV         1.7960    2.4860   -8.8920 c3        1 749     -0.021000
     23 CAW         3.2610    0.1310   -1.6940 c2        1 749     -0.222000
     24 CAX         4.5430    1.7710  -11.4830 c2        1 749     -0.590000
     25 CAY        -0.6340    1.3700   -4.4760 c2        1 749     -0.319000
     26 CAZ         1.1720    3.7200   -8.3130 c2        1 749     -0.211000
     27 CBA        -1.8950    4.5330   -6.1430 c2        1 749     -1.340000
     28 PBB        -3.2930    4.5080   -7.0030 p5        1 749      2.090000
     29 PBC        -1.2380    6.0820   -4.6150 p3        1 749      2.563000
     30 HAA         1.7700   -0.2960   -0.2100 hc        1 749      0.057500
     31 HAAA        2.1860    1.4560   -0.3920 hc        1 749      0.057500
     32 HAAB        3.3370    0.3320    0.4510 hc        1 749      0.057500
     33 HAB         5.3210    0.1760   -1.0960 hc        1 749      0.057500
     34 HABA        4.5480   -1.4580   -1.0420 hc        1 749      0.057500
     35 HABB        5.0050   -0.7250   -2.6350 hc        1 749      0.057500
     36 HAC         5.3960    0.1350  -12.6110 hc        1 749     -0.021333
     37 HACA        5.4520   -0.0600  -10.8140 hc        1 749     -0.021333
     38 HACB        6.5820    1.0740  -11.6570 hc        1 749     -0.021333
     39 HAD         5.5630    3.3230  -12.5790 hc        1 749     -0.021333
     40 HADA        4.3800    2.3880  -13.5430 hc        1 749     -0.021333
     41 HADB        3.7890    3.5920  -12.3230 hc        1 749     -0.021333
     42 HAE        -1.9100   -0.3520   -4.6300 hc        1 749      0.040667
     43 HAEA       -1.6860    0.2820   -2.9540 hc        1 749      0.040667
     44 HAEB       -2.7480    1.1770   -4.1250 hc        1 749      0.040667
     45 HAF         1.7250    5.6890   -7.6410 hc        1 749      0.054667
     46 HAFA        3.0250    4.7850   -8.5380 hc        1 749      0.054667
     47 HAFB        1.6210    5.4860   -9.4380 hc        1 749      0.054667
     48 HAM         3.2110    0.2080   -3.8160 ha        1 749      0.117000
     49 HAN         3.7680    0.9080   -9.7100 ha        1 749      0.037000
     50 HAO         0.2610    3.1240   -5.2590 ha        1 749      0.151000
     51 HAP        -0.5150    2.6840   -7.5640 ha        1 749      0.112000
     52 HAQ         1.4910    2.1950   -3.0330 hc        1 749      0.114000
     53 HAQA        0.6890    0.8220   -2.1700 hc        1 749      0.114000
     54 HAR        -2.7840    3.5600   -8.9160 ho        1 749      0.178000
     55 HARA        2.5020    3.5690  -10.6680 ha        1 749      0.092000
     56 HAS        -2.8050    2.8350   -5.2410 hc        1 749      0.084500
     57 HASA       -2.0110    3.9290   -4.0500 hc        1 749      0.084500
     58 HAT        -1.0310    5.4920   -7.8150 hc        1 749      0.089000
     59 HATA        0.0980    5.3600   -6.3950 hc        1 749      0.089000
     60 HAU         0.5420   -0.4350   -4.3560 hc        1 749      0.053000
     61 HAUA        1.3500    0.9500   -5.1950 hc        1 749      0.053000
     62 HAV         0.9720    1.7690   -9.1770 hc        1 749      0.028500
     63 HAVA        2.3710    1.9770   -8.0650 hc        1 749      0.028500
@<TRIPOS>BOND
     1    1   23 1   
     2    1   30 1   
     3    1   31 1   
     4    1   32 1   
     5    2   23 1   
     6    2   33 1   
     7    2   34 1   
     8    2   35 1   
     9    3   24 1   
    10    3   36 1   
    11    3   37 1   
    12    3   38 1   
    13    4   24 1   
    14    4   39 1   
    15    4   40 1   
    16    4   41 1   
    17    5   25 1   
    18    5   42 1   
    19    5   43 1   
    20    5   44 1   
    21    6   26 1   
    22    6   45 1   
    23    6   46 1   
    24    6   47 1   
    25    7   28 1   
    26    8   29 1   
    27    9   28 1   
    28    9   54 1   
    29   10   28 1   
    30   11   29 1   
    31   12   29 1   
    32   13   17 1   
    33   13   23 1   
    34   13   48 1   
    35   14   18 1   
    36   14   24 1   
    37   14   49 1   
    38   15   19 1   
    39   15   25 1   
    40   15   50 1   
    41   16   20 1   
    42   16   26 1   
    43   16   51 1   
    44   17   21 1   
    45   17   52 1   
    46   17   53 1   
    47   18   22 1   
    48   18   55 1   
    49   19   27 1   
    50   19   56 1   
    51   19   57 1   
    52   20   27 1   
    53   20   58 1   
    54   20   59 1   
    55   21   25 1   
    56   21   60 1   
    57   21   61 1   
    58   22   26 1   
    59   22   62 1   
    60   22   63 1   
    61   27   28 1   
@<TRIPOS>SUBSTRUCTURE
     1 749         1 TEMP              0 ****  ****    0 ROOT
