@<TRIPOS>MOLECULE
molecule
   87    90     1     0     0
SMALL
bcc


@<TRIPOS>ATOM
      1 C1           0.0000     0.0000     0.0000 c          1 74A       0.681700
      2 F1           7.5710    -6.6830     4.3620 f          1 74A      -0.138900
      3 N1           1.3480     0.0000     0.0000 n          1 74A      -0.490800
      4 O1          -0.6070    -0.0850     1.0500 o          1 74A      -0.600100
      5 C2          10.3540    -2.7800     5.5420 ca         1 74A      -0.148600
      6 F2           6.8150    -6.6500    -0.3150 f          1 74A      -0.138900
      7 N2           6.0020    -2.0300     3.5190 ns         1 74A      -0.583900
      8 O2          11.9160    -4.3730     4.8450 o          1 74A      -0.593100
      9 C3          11.7190    -3.3420     5.4570 c          1 74A       0.675700
     10 N3           3.9520    -0.9930     0.0040 n7         1 74A      -0.808200
     11 O3           7.5910    -3.1310     2.4250 o          1 74A      -0.592100
     12 C4           7.2450    -2.5430     3.4320 c          1 74A       0.672700
     13 N4          12.7470    -2.7090     6.0590 n          1 74A      -0.488800
     14 O4           3.2360    -1.1880     3.6260 oh         1 74A      -0.600800
     15 C5           3.1350    -1.1320     1.2120 c3         1 74A       0.130500
     16 C6           5.0680    -2.1770     2.4010 c3         1 74A       0.122700
     17 C7           8.1880    -2.3950     4.5620 ca         1 74A      -0.152600
     18 C8           4.0330    -1.0520     2.4480 c3         1 74A       0.138100
     19 C9           2.1030     0.0000     1.2620 c3         1 74A       0.071000
     20 C10          9.4730    -2.9260     4.4730 ca         1 74A      -0.018000
     21 C11          5.3630    -4.6380     2.3330 ca         1 74A      -0.017300
     22 C12          4.3580    -3.5280     2.5040 c3         1 74A      -0.044100
     23 C13          9.9430    -2.1110     6.6960 ca         1 74A      -0.109000
     24 C14          7.7920    -1.7210     5.7190 ca         1 74A      -0.091000
     25 C15         -0.7390     0.1090    -1.2750 ca         1 74A      -0.145600
     26 C16          7.2080    -6.6780     2.0210 ca         1 74A      -0.207000
     27 C17          6.9370    -6.1760     3.2830 ca         1 74A       0.165400
     28 C18          6.5520    -6.1630     0.9170 ca         1 74A       0.165400
     29 C19          8.6690    -1.5860     6.7770 ca         1 74A      -0.103300
     30 C20          6.0130    -5.1570     3.4370 ca         1 74A      -0.173500
     31 C21          5.6290    -5.1420     1.0740 ca         1 74A      -0.173500
     32 C22          2.1020    -0.0060    -1.2630 c3         1 74A       0.041000
     33 C23          3.1340    -1.1380    -1.2080 c3         1 74A       0.142800
     34 C24         14.0810    -3.3120     6.0560 c3         1 74A       0.099000
     35 C25         12.5280    -1.4180     6.7150 c3         1 74A       0.099000
     36 C26         -1.9550    -0.5580    -1.4400 ca         1 74A      -0.093000
     37 C27         -0.2280     0.8830    -2.3180 ca         1 74A      -0.093000
     38 C28          8.2320    -0.8650     8.0260 c3         1 74A      -0.046800
     39 C29         14.8500    -2.8430     4.8190 c3         1 74A      -0.111400
     40 C30         12.4940    -1.6160     8.2320 c3         1 74A      -0.111400
     41 C31         16.2450    -3.4740     4.8160 c3         1 74A      -0.093600
     42 C32         12.1330    -0.2940     8.9110 c3         1 74A      -0.093600
     43 C33         -0.9240     0.9800    -3.5050 ca         1 74A      -0.137500
     44 C34         -2.6400    -0.4520    -2.6330 ca         1 74A      -0.137500
     45 C35         -2.1250     0.3130    -3.6640 ca         1 74A      -0.106000
     46 HN2          5.7250    -1.5260     4.3380 hn         1 74A       0.312500
     47 HN3          4.3950    -0.0960     0.0020 hn         1 74A       0.353800
     48 HO4          3.2440    -0.3770     4.1070 ho         1 74A       0.404000
     49 H5           2.6220    -2.0860     1.1930 h1         1 74A       0.094700
     50 H6           5.6140    -2.1270     1.4660 h1         1 74A       0.110700
     51 H8           4.5410    -0.0950     2.4640 h1         1 74A       0.037700
     52 H9           1.4250    -0.1630     2.0910 h1         1 74A       0.067200
     53 H9A          2.6110     0.9490     1.3810 h1         1 74A       0.067200
     54 H10          9.7470    -3.5410     3.6250 ha         1 74A       0.181000
     55 H12          3.6050    -3.6000     1.7280 hc         1 74A       0.064700
     56 H12A         3.8860    -3.6140     3.4750 hc         1 74A       0.064700
     57 H13         10.6260    -2.0020     7.5300 ha         1 74A       0.161000
     58 H14          6.7930    -1.3070     5.7890 ha         1 74A       0.125000
     59 H16          7.9010    -7.5020     1.9040 ha         1 74A       0.156000
     60 H20          5.7580    -4.8040     4.4300 ha         1 74A       0.144000
     61 H21          5.0820    -4.7700     0.2160 ha         1 74A       0.144000
     62 H22          2.6100     0.9430    -1.3870 h1         1 74A       0.063200
     63 H22A         1.4230    -0.1730    -2.0900 h1         1 74A       0.063200
     64 H23          3.7720    -1.0860    -2.0820 h1         1 74A       0.068200
     65 H23A         2.6210    -2.0920    -1.1850 h1         1 74A       0.068200
     66 H24         13.9890    -4.3920     6.0360 h1         1 74A       0.059450
     67 H24A        14.6150    -3.0120     6.9490 h1         1 74A       0.059450
     68 H25         13.3330    -0.7410     6.4570 h1         1 74A       0.059450
     69 H25A        11.5850    -1.0000     6.3840 h1         1 74A       0.059450
     70 H26         -2.3590    -1.1570    -0.6330 ha         1 74A       0.145500
     71 H27          0.7120     1.4070    -2.1960 ha         1 74A       0.145500
     72 H28          8.6220    -1.3800     8.8960 hc         1 74A       0.044367
     73 H28A         8.6100     0.1500     8.0080 hc         1 74A       0.044367
     74 H28B         7.1500    -0.8460     8.0730 hc         1 74A       0.044367
     75 H29         14.9420    -1.7640     4.8390 hc         1 74A       0.051950
     76 H29A        14.3160    -3.1430     3.9260 hc         1 74A       0.051950
     77 H30         13.4670    -1.9440     8.5750 hc         1 74A       0.051950
     78 H30A        11.7520    -2.3640     8.4810 hc         1 74A       0.051950
     79 H31         16.1530    -4.5530     4.8230 hc         1 74A       0.036367
     80 H31A        16.7790    -3.1620     3.9270 hc         1 74A       0.036367
     81 H31B        16.7890    -3.1520     5.6950 hc         1 74A       0.036367
     82 H32         13.0330     0.1740     9.2910 hc         1 74A       0.036367
     83 H32A        11.6590     0.3640     8.1930 hc         1 74A       0.036367
     84 H32B        11.4510    -0.4840     9.7310 hc         1 74A       0.036367
     85 H33         -0.5270     1.5790    -4.3160 ha         1 74A       0.136000
     86 H34         -3.5820    -0.9700    -2.7630 ha         1 74A       0.136000
     87 H35         -2.6660     0.3930    -4.5990 ha         1 74A       0.133000
@<TRIPOS>BOND
     1     1     3 1   
     2     1     4 2   
     3     1    25 1   
     4     2    27 1   
     5     3    19 1   
     6     3    32 1   
     7     5     9 1   
     8     5    20 ar  
     9     5    23 ar  
    10     6    28 1   
    11     7    12 1   
    12     7    16 1   
    13     8     9 2   
    14     9    13 1   
    15    10    15 1   
    16    10    33 1   
    17    11    12 2   
    18    12    17 1   
    19    13    34 1   
    20    13    35 1   
    21    14    18 1   
    22    15    18 1   
    23    15    19 1   
    24    16    18 1   
    25    16    22 1   
    26    17    20 ar  
    27    17    24 ar  
    28    21    22 1   
    29    21    30 ar  
    30    21    31 ar  
    31    23    29 ar  
    32    24    29 ar  
    33    25    36 ar  
    34    25    37 ar  
    35    26    27 ar  
    36    26    28 ar  
    37    27    30 ar  
    38    28    31 ar  
    39    29    38 1   
    40    32    33 1   
    41    34    39 1   
    42    35    40 1   
    43    36    44 ar  
    44    37    43 ar  
    45    39    41 1   
    46    40    42 1   
    47    43    45 ar  
    48    44    45 ar  
    49     7    46 1   
    50    10    47 1   
    51    14    48 1   
    52    15    49 1   
    53    16    50 1   
    54    18    51 1   
    55    19    52 1   
    56    19    53 1   
    57    20    54 1   
    58    22    55 1   
    59    22    56 1   
    60    23    57 1   
    61    24    58 1   
    62    26    59 1   
    63    30    60 1   
    64    31    61 1   
    65    32    62 1   
    66    32    63 1   
    67    33    64 1   
    68    33    65 1   
    69    34    66 1   
    70    34    67 1   
    71    35    68 1   
    72    35    69 1   
    73    36    70 1   
    74    37    71 1   
    75    38    72 1   
    76    38    73 1   
    77    38    74 1   
    78    39    75 1   
    79    39    76 1   
    80    40    77 1   
    81    40    78 1   
    82    41    79 1   
    83    41    80 1   
    84    41    81 1   
    85    42    82 1   
    86    42    83 1   
    87    42    84 1   
    88    43    85 1   
    89    44    86 1   
    90    45    87 1   
@<TRIPOS>SUBSTRUCTURE
     1 74A         1 TEMP              0 ****  ****    0 ROOT
