@<TRIPOS>MOLECULE
74D
   73    76     1     0     0
SMALL
bcc


@<TRIPOS>ATOM
      1 CBK          0.0000     0.0000     0.0000 c3         1 74D      -0.046100
      2 CBH          1.5300     0.0000     0.0000 c3         1 74D       0.380600
      3 FBI          1.9950     0.0000     1.3200 f          1 74D      -0.217800
      4 FBJ          1.9970    -1.1410    -0.6600 f          1 74D      -0.217800
      5 CBG          2.0390     1.2510    -0.7200 c3         1 74D       0.081800
      6 NBD          3.5020     1.3220    -0.6010 n3         1 74D      -0.521600
      7 CBE          3.9820     2.6910    -0.8240 c3         1 74D       0.145300
      8 CBF          3.6330     3.1300    -2.2480 c3         1 74D      -0.073400
      9 CBC          4.1520     0.3760    -1.5170 c3         1 74D       0.145300
     10 CBB          3.8080     0.7450    -2.9620 c3         1 74D      -0.073400
     11 CBA          4.2880     2.1710    -3.2470 c3         1 74D      -0.071700
     12 CAY          3.8930     2.5680    -4.6710 c3         1 74D      -0.077000
     13 CAZ          4.3650     3.9970    -4.9510 c3         1 74D      -0.025100
     14 NAQ          4.5180     1.6500    -5.6260 na         1 74D       0.425600
     15 CAP          3.8440     0.8650    -6.4980 cc         1 74D      -0.189300
     16 CAX          2.3440     0.8050    -6.6300 c3         1 74D       0.075100
     17 CAR          5.8790     1.4690    -5.7670 ca         1 74D      -0.215200
     18 CAT          6.9850     2.0220    -5.1280 ca         1 74D      -0.108000
     19 CAU          8.2550     1.6350    -5.4950 ca         1 74D      -0.091000
     20 CAV          8.4460     0.6960    -6.4980 ca         1 74D      -0.125000
     21 CAW          7.3630     0.1370    -7.1420 ca         1 74D      -0.049000
     22 CAS          6.0740     0.5180    -6.7820 ca         1 74D      -0.059800
     23 CAN          4.7260     0.1350    -7.2390 cd         1 74D      -0.225400
     24 CAM          4.3980    -0.8390    -8.2890 c          1 74D       0.643300
     25 OAO          4.2370    -2.0100    -8.0030 o          1 74D      -0.656100
     26 NAL          4.2760    -0.4350    -9.5680 ns         1 74D      -0.219900
     27 CAK          3.9490    -1.4070   -10.6160 c3         1 74D       0.074000
     28 CAC          3.8700    -0.6930   -11.9670 c3         1 74D      -0.152500
     29 CAD          2.8200     0.3940   -11.8630 c          1 74D       0.738500
     30 OAH          2.9150     1.2740   -11.0300 o          1 74D      -0.564100
     31 NAE          1.7880     0.3610   -12.7080 ne         1 74D      -0.630100
     32 CAF          1.6480    -0.5710   -13.6200 cf         1 74D       0.577600
     33 CAG          0.4400    -0.5020   -14.5180 c3         1 74D      -0.049400
     34 CAA          2.5440    -1.6200   -13.8140 cf         1 74D      -0.454600
     35 CAB          3.6540    -1.7430   -13.0400 c2         1 74D       0.212900
     36 OAI          4.5250    -2.7520   -13.2190 os         1 74D      -0.284900
     37 CAJ          4.2260    -3.7040   -14.2750 c3         1 74D       0.248700
     38 H1          -0.3610    -0.0330    -1.0210 hc         1 74D       0.028367
     39 H2          -0.3610     0.9010     0.4820 hc         1 74D       0.028367
     40 H3          -0.3610    -0.8670     0.5390 hc         1 74D       0.028367
     41 H4           1.7640     1.2020    -1.7670 h1         1 74D       0.040700
     42 H5           1.5970     2.1310    -0.2710 h1         1 74D       0.040700
     43 H7           3.5060     3.3590    -0.1160 h1         1 74D       0.035950
     44 H8           5.0560     2.7220    -0.6910 h1         1 74D       0.035950
     45 H9           2.5580     3.1080    -2.3790 hc         1 74D       0.030450
     46 H10          4.0030     4.1340    -2.4170 hc         1 74D       0.030450
     47 H11          3.7990    -0.6270    -1.3080 h1         1 74D       0.035950
     48 H12          5.2260     0.4220    -1.3790 h1         1 74D       0.035950
     49 H13          2.7360     0.6910    -3.1030 hc         1 74D       0.030450
     50 H14          4.3020     0.0570    -3.6370 hc         1 74D       0.030450
     51 H15          5.3650     2.2180    -3.1380 hc         1 74D       0.054700
     52 H16          2.8160     2.5180    -4.7740 h1         1 74D       0.055700
     53 H17          4.9780     4.3430    -4.1270 hc         1 74D       0.020033
     54 H18          4.9470     4.0120    -5.8650 hc         1 74D       0.020033
     55 H19          3.5050     4.6470    -5.0590 hc         1 74D       0.020033
     56 H20          2.0090    -0.2150    -6.4890 hc         1 74D       0.018033
     57 H21          2.0550     1.1470    -7.6170 hc         1 74D       0.018033
     58 H22          1.8890     1.4420    -5.8810 hc         1 74D       0.018033
     59 H23          6.8470     2.7560    -4.3440 ha         1 74D       0.105000
     60 H24          9.1130     2.0680    -4.9960 ha         1 74D       0.100000
     61 H25          9.4500     0.4010    -6.7760 ha         1 74D       0.102000
     62 H26          7.5150    -0.5960    -7.9260 ha         1 74D       0.104000
     63 H27          4.4230     0.5260    -9.8050 hn         1 74D       0.214500
     64 H28          2.9940    -1.8680   -10.3950 h1         1 74D       0.032200
     65 H29          4.7180    -2.1690   -10.6540 h1         1 74D       0.032200
     66 H30          4.8240    -0.2160   -12.1570 hc         1 74D       0.071700
     67 H31         -0.2540     0.2350   -14.1330 hc         1 74D       0.023033
     68 H32          0.7490    -0.2190   -15.5170 hc         1 74D       0.023033
     69 H33         -0.0420    -1.4710   -14.5490 hc         1 74D       0.023033
     70 H34          2.3540    -2.3470   -14.5940 ha         1 74D       0.141000
     71 H35          5.0020    -4.4580   -14.3120 h1         1 74D       0.007700
     72 H36          3.2720    -4.1770   -14.0740 h1         1 74D       0.007700
     73 H37          4.1790    -3.1860   -15.2250 h1         1 74D       0.007700
@<TRIPOS>BOND
     1     1     2 1   
     2     1    38 1   
     3     1    39 1   
     4     1    40 1   
     5     2     3 1   
     6     2     4 1   
     7     2     5 1   
     8     5     6 1   
     9     5    41 1   
    10     5    42 1   
    11     6     7 1   
    12     6     9 1   
    13     7     8 1   
    14     7    43 1   
    15     7    44 1   
    16     8    11 1   
    17     8    45 1   
    18     8    46 1   
    19     9    10 1   
    20     9    47 1   
    21     9    48 1   
    22    10    11 1   
    23    10    49 1   
    24    10    50 1   
    25    11    12 1   
    26    11    51 1   
    27    12    13 1   
    28    12    14 1   
    29    12    52 1   
    30    13    53 1   
    31    13    54 1   
    32    13    55 1   
    33    14    15 1   
    34    14    17 1   
    35    15    16 1   
    36    15    23 2   
    37    16    56 1   
    38    16    57 1   
    39    16    58 1   
    40    17    18 ar  
    41    17    22 ar  
    42    18    19 ar  
    43    18    59 1   
    44    19    20 ar  
    45    19    60 1   
    46    20    21 ar  
    47    20    61 1   
    48    21    22 ar  
    49    21    62 1   
    50    22    23 1   
    51    23    24 1   
    52    24    25 2   
    53    24    26 1   
    54    26    27 1   
    55    26    63 1   
    56    27    28 1   
    57    27    64 1   
    58    27    65 1   
    59    28    29 1   
    60    28    35 1   
    61    28    66 1   
    62    29    30 2   
    63    29    31 1   
    64    31    32 2   
    65    32    33 1   
    66    32    34 1   
    67    33    67 1   
    68    33    68 1   
    69    33    69 1   
    70    34    35 2   
    71    34    70 1   
    72    35    36 1   
    73    36    37 1   
    74    37    71 1   
    75    37    72 1   
    76    37    73 1   
@<TRIPOS>SUBSTRUCTURE
     1 74D         1 TEMP              0 ****  ****    0 ROOT
