@<TRIPOS>MOLECULE
74E
   62    65     1     0     0
SMALL
bcc


@<TRIPOS>ATOM
      1 C4           0.0000     0.0000     0.0000 c3         1 74E      -0.109400
      2 C5           1.4090     0.2320     2.4850 cc         1 74E      -0.277600
      3 C6           2.1440     0.0000     1.3280 cd         1 74E      -0.240600
      4 C7           3.5190    -0.2170     1.7420 cd         1 74E      -0.034300
      5 C8           3.5250    -0.1080     3.0860 cc         1 74E      -0.371300
      6 C13          1.8880     0.3370     4.8620 ca         1 74E      -0.041200
      7 C14          1.1380     1.4490     5.2350 ca         1 74E      -0.140000
      8 C15          0.7750     1.6310     6.5490 ca         1 74E      -0.031000
      9 C1           1.5230     0.0000     0.0000 c          1 74E       0.658700
     10 C2          -0.0730     0.5050     2.4680 c3         1 74E       0.074900
     11 C3          -0.4830     0.9820     1.0720 c3         1 74E      -0.063000
     12 N9           2.2520     0.1610     3.5230 na         1 74E       0.558800
     13 O12          2.1740     0.0000    -1.0240 o          1 74E      -0.543100
     14 C16          1.1600     0.6970     7.5170 ca         1 74E      -0.334600
     15 C17          1.9160    -0.4250     7.1390 ca         1 74E       0.173600
     16 C18          2.2800    -0.5940     5.8120 ca         1 74E      -0.206000
     17 C19          0.7730     0.8890     8.9240 c          1 74E       0.358700
     18 N20          0.1530     2.0230     9.3040 nz         1 74E       0.210600
     19 N21          2.3080    -1.3550     8.0930 nu         1 74E      -0.355600
     20 C22          3.2090    -2.4490     7.7230 c3         1 74E       0.188500
     21 C23          3.9640    -2.9290     8.9640 c3         1 74E      -0.108400
     22 C24          4.9060    -4.0720     8.5790 c3         1 74E      -0.103900
     23 C25          4.0920    -5.2290     7.9970 c3         1 74E       0.272100
     24 C26          3.3370    -4.7490     6.7560 c3         1 74E      -0.103900
     25 C27          2.3960    -3.6060     7.1420 c3         1 74E      -0.108400
     26 O28          4.9720    -6.2960     7.6360 oh         1 74E      -0.572800
     27 C29          4.6990    -0.5080     0.8510 c3         1 74E       0.092200
     28 O30          1.0140     0.0240     9.7450 o          1 74E      -0.517100
     29 H1          -0.3410     0.3540    -0.9650 hc         1 74E       0.048200
     30 H2          -0.3410    -0.9930     0.2690 hc         1 74E       0.048200
     31 H3           4.3970    -0.2140     3.7200 h4         1 74E       0.156000
     32 H4          -2.4480     0.1230     1.2120 hc         1 74E       0.011033
     33 H5          -2.3520     1.8090     1.7390 hc         1 74E       0.011033
     34 H6          -2.3030     1.4170     0.0150 hc         1 74E       0.011033
     35 H7          -0.0460     3.0020     1.6620 hc         1 74E       0.011033
     36 H8          -0.3210     2.7940    -0.0730 hc         1 74E       0.011033
     37 H9           1.1990     2.2530     0.6530 hc         1 74E       0.011033
     38 H10          0.8380     2.1740     4.4870 ha         1 74E       0.146000
     39 H11          0.1920     2.4980     6.8350 ha         1 74E       0.081000
     40 H12         -0.3060     1.2740     3.1940 hc         1 74E       0.020200
     41 H13         -0.6110    -0.4040     2.7100 hc         1 74E       0.020200
     42 H14          2.8630    -1.4570     5.5150 ha         1 74E       0.162000
     43 H15         -0.7300     2.0940     8.8370 hn         1 74E       0.242800
     44 H16          0.7210     2.8110     9.0630 hn         1 74E       0.242800
     45 H17          1.9430    -1.3020     9.0230 hn         1 74E       0.350800
     46 H18          3.9200    -2.1020     6.9830 h1         1 74E       0.038700
     47 H19          4.1360    -2.3120     9.8370 hc         1 74E       0.043700
     48 H20          4.5110    -2.4070     8.1880 hc         1 74E       0.043700
     49 H21          5.6130    -3.7210     7.8370 hc         1 74E       0.049700
     50 H22          5.4370    -4.4130     9.4590 hc         1 74E       0.049700
     51 H23          3.3810    -5.5750     8.7370 h1         1 74E      -0.012300
     52 H24          3.1650    -5.3660     5.8830 hc         1 74E       0.049700
     53 H25          2.7900    -5.2710     7.5320 hc         1 74E       0.049700
     54 H26          1.8640    -3.2660     6.2620 hc         1 74E       0.043700
     55 H27          1.6890    -3.9570     7.8840 hc         1 74E       0.043700
     56 H28          4.7420    -7.0710     8.1220 ho         1 74E       0.396000
     57 H29          4.4850    -1.3750     0.2390 hc         1 74E       0.016700
     58 H30          4.8890     0.3470     0.2130 hc         1 74E       0.016700
     59 H31          5.5730    -0.7030     1.4610 hc         1 74E       0.016700
     60 C10         -2.0080     1.0900     1.0050 c3         1 74E      -0.000100
     61 C11          0.1320     2.3580     0.8090 c3         1 74E      -0.000100
     62 H203         0.0060     2.0080    10.2940 hn         1 74E       0.242800
@<TRIPOS>BOND
     1     1     9 1   
     2     1    11 1   
     3     1    29 1   
     4     1    30 1   
     5     2     3 2   
     6     2    10 1   
     7     2    12 1   
     8     3     4 1   
     9     3     9 1   
    10     4     5 2   
    11     4    27 1   
    12     5    12 1   
    13     5    31 1   
    14     6     7 ar  
    15     6    12 1   
    16     6    16 ar  
    17     7     8 ar  
    18     7    38 1   
    19     8    14 ar  
    20     8    39 1   
    21     9    13 2   
    22    10    11 1   
    23    10    40 1   
    24    10    41 1   
    25    11    60 1   
    26    11    61 1   
    27    14    15 ar  
    28    14    17 1   
    29    15    16 ar  
    30    15    19 1   
    31    16    42 1   
    32    17    18 1   
    33    17    28 2   
    34    18    43 1   
    35    18    44 1   
    36    18    62 1   
    37    19    20 1   
    38    19    45 1   
    39    20    21 1   
    40    20    25 1   
    41    20    46 1   
    42    21    22 1   
    43    21    47 1   
    44    21    48 1   
    45    22    23 1   
    46    22    49 1   
    47    22    50 1   
    48    23    24 1   
    49    23    26 1   
    50    23    51 1   
    51    24    25 1   
    52    24    52 1   
    53    24    53 1   
    54    25    54 1   
    55    25    55 1   
    56    26    56 1   
    57    27    57 1   
    58    27    58 1   
    59    27    59 1   
    60    32    60 1   
    61    33    60 1   
    62    34    60 1   
    63    35    61 1   
    64    36    61 1   
    65    37    61 1   
@<TRIPOS>SUBSTRUCTURE
     1 74E         1 TEMP              0 ****  ****    0 ROOT
