@<TRIPOS>MOLECULE
74F
   52    56     1     0     0
SMALL
bcc


@<TRIPOS>ATOM
      1 C1           0.0000     0.0000     0.0000 ca         1 74F      -0.128000
      2 C2           1.3880     0.0000     0.0000 ca         1 74F      -0.064000
      3 C3          -0.6980     0.0020     1.1730 ca         1 74F      -0.015000
      4 C7           1.3950     0.0010     2.3930 ca         1 74F      -0.217200
      5 C8           5.2180    -0.8520     4.1980 ca         1 74F       0.239000
      6 C9           3.0850     0.0020     4.2070 ca         1 74F       0.195500
      7 C10          3.4550     0.8940     5.2230 ca         1 74F       0.420900
      8 C11          6.2180    -1.8030     3.6530 cc         1 74F       0.503000
      9 C12          8.0940    -2.8460     3.3650 cd         1 74F       0.267800
     10 C13         10.1880    -1.2110     2.4000 c3         1 74F       0.102300
     11 C14         11.8010    -2.4350     3.7260 c3         1 74F       0.102300
     12 C15         11.0450     0.0480     2.5410 c3         1 74F       0.216400
     13 C16         12.6430    -1.1620     3.8520 c3         1 74F       0.216400
     14 C19          9.5340    -3.2610     3.5130 c3         1 74F       0.123200
     15 N23          7.4950    -1.9040     4.0450 nc         1 74F      -0.654000
     16 N25          0.5980     0.0040     4.4730 nc         1 74F      -0.326400
     17 N26          1.7770     0.0030     3.7150 na         1 74F       0.487100
     18 N29          2.5180     1.7790     5.7450 nv         1 74F      -0.647500
     19 C4           2.0870     0.0000     1.1870 ca         1 74F      -0.087000
     20 C5           5.5840     0.0430     5.2000 ca         1 74F       0.337900
     21 C6          -0.0120     0.0030     2.3930 ca         1 74F      -0.013600
     22 C17          9.7000    -4.0780     4.7960 c3         1 74F      -0.001100
     23 N20          4.6960     0.8910     5.6880 nb         1 74F      -0.558000
     24 N21         -0.4190     0.0040     3.6850 nd         1 74F      -0.127400
     25 N22          3.9750    -0.8500     3.7240 nb         1 74F      -0.501000
     26 N24          5.9950    -2.6930     2.7110 nd         1 74F      -0.635800
     27 N27          7.2050    -3.3750     2.5050 na         1 74F       0.348600
     28 N28         10.3850    -2.0660     3.5810 n3         1 74F      -0.512600
     29 O30         12.4140    -0.3290     2.7120 os         1 74F      -0.412600
     30 H1          -0.5360    -0.0000    -0.9420 ha         1 74F       0.108000
     31 H2           1.9260    -0.0010    -0.9400 ha         1 74F       0.104000
     32 H3          -1.7810     0.0020     1.1600 ha         1 74F       0.112000
     33 H4           9.1440    -0.9310     2.3280 h1         1 74F       0.019200
     34 H5          10.4850    -1.7520     1.5100 h1         1 74F       0.019200
     35 H6          12.1190    -2.9930     2.8530 h1         1 74F       0.019200
     36 H7          11.9270    -3.0400     4.6150 h1         1 74F       0.019200
     37 H8          10.7160     0.6140     3.4040 h1         1 74F       0.015200
     38 H9          10.9470     0.6530     1.6470 h1         1 74F       0.015200
     39 H10         12.3580    -0.6290     4.7510 h1         1 74F       0.015200
     40 H11         13.6920    -1.4270     3.8990 h1         1 74F       0.015200
     41 H12          9.8260    -3.8640     2.6610 h1         1 74F       0.007700
     42 H13          2.0070     1.5360     6.5700 hn         1 74F       0.289300
     43 H14          2.3960     2.6800     5.3270 hn         1 74F       0.289300
     44 H15          3.1700     0.0000     1.1810 ha         1 74F       0.118000
     45 H16          6.5980     0.0430     5.5820 h4         1 74F       0.014100
     46 H17          9.9700    -3.4190     5.6120 hc         1 74F       0.017033
     47 H18         10.4800    -4.8170     4.6550 hc         1 74F       0.017033
     48 H19          8.7670    -4.5780     5.0290 hc         1 74F       0.017033
     49 H20          7.7850    -5.3410     2.0820 h1         1 74F       0.027033
     50 H21          6.5310    -4.6860     1.0200 h1         1 74F       0.027033
     51 H22          8.2080    -4.1540     0.8410 h1         1 74F       0.027033
     52 C18          7.4480    -4.4600     1.5500 c3         1 74F       0.026600
@<TRIPOS>BOND
     1     1     2 ar  
     2     1     3 ar  
     3     1    30 1   
     4     2    19 ar  
     5     2    31 1   
     6     3    21 ar  
     7     3    32 1   
     8     4    17 1   
     9     4    19 ar  
    10     4    21 ar  
    11     5     8 1   
    12     5    20 ar  
    13     5    25 ar  
    14     6     7 ar  
    15     6    17 1   
    16     6    25 ar  
    17     7    18 1   
    18     7    23 ar  
    19     8    15 1   
    20     8    26 2   
    21     9    14 1   
    22     9    15 2   
    23     9    27 1   
    24    10    12 1   
    25    10    28 1   
    26    10    33 1   
    27    10    34 1   
    28    11    13 1   
    29    11    28 1   
    30    11    35 1   
    31    11    36 1   
    32    12    29 1   
    33    12    37 1   
    34    12    38 1   
    35    13    29 1   
    36    13    39 1   
    37    13    40 1   
    38    14    22 1   
    39    14    28 1   
    40    14    41 1   
    41    16    17 1   
    42    16    24 2   
    43    18    42 1   
    44    18    43 1   
    45    19    44 1   
    46    20    23 ar  
    47    20    45 1   
    48    21    24 1   
    49    22    46 1   
    50    22    47 1   
    51    22    48 1   
    52    26    27 1   
    53    27    52 1   
    54    49    52 1   
    55    50    52 1   
    56    51    52 1   
@<TRIPOS>SUBSTRUCTURE
     1 74F         1 TEMP              0 ****  ****    0 ROOT
