@<TRIPOS>MOLECULE
molecule
   52    56     1     0     0
SMALL
bcc


@<TRIPOS>ATOM
      1 C1           0.0000     0.0000     0.0000 ca         1 74F      -0.153000
      2 C2           1.3880     0.0000     0.0000 ca         1 74F      -0.092000
      3 C3          -0.6980     0.0020     1.1730 ca         1 74F      -0.051000
      4 C7           1.3950     0.0010     2.3930 ca         1 74F      -0.047200
      5 C8           5.2180    -0.8520     4.1980 ca         1 74F       0.300000
      6 C9           3.0850     0.0020     4.2070 ca         1 74F       0.409500
      7 C10          3.4550     0.8940     5.2230 ca         1 74F       0.586900
      8 C11          6.2180    -1.8030     3.6530 cc         1 74F       0.509000
      9 C12          8.0940    -2.8460     3.3650 cc         1 74F       0.456800
     10 C13         10.1880    -1.2110     2.4000 c3         1 74F       0.120800
     11 C14         11.8010    -2.4350     3.7260 c3         1 74F       0.120800
     12 C15         11.0450     0.0480     2.5410 c3         1 74F       0.141400
     13 C16         12.6430    -1.1620     3.8520 c3         1 74F       0.141400
     14 C19          9.5340    -3.2610     3.5130 c3         1 74F       0.155200
     15 N23          7.4950    -1.9040     4.0450 nd         1 74F      -0.734000
     16 N25          0.5980     0.0040     4.4730 nd         1 74F      -0.120400
     17 N26          1.7770     0.0030     3.7150 na         1 74F       0.032100
     18 N29          2.5180     1.7790     5.7450 nv         1 74F      -1.069500
     19 C4           2.0870     0.0000     1.1870 ca         1 74F      -0.123000
     20 C5           5.5840     0.0430     5.2000 ca         1 74F       0.345900
     21 C6          -0.0120     0.0030     2.3930 ca         1 74F       0.016400
     22 C17          9.7000    -4.0780     4.7960 c3         1 74F      -0.088100
     23 N20          4.6960     0.8910     5.6880 nb         1 74F      -0.665000
     24 N21         -0.4190     0.0040     3.6850 nc         1 74F      -0.207400
     25 N22          3.9750    -0.8500     3.7240 nb         1 74F      -0.646000
     26 N24          5.9950    -2.6930     2.7110 nd         1 74F      -0.494800
     27 N27          7.2050    -3.3750     2.5050 na         1 74F      -0.065400
     28 N28         10.3850    -2.0660     3.5810 n3         1 74F      -0.708600
     29 O30         12.4140    -0.3290     2.7120 os         1 74F      -0.425600
     30 H1          -0.5360    -0.0000    -0.9420 ha         1 74F       0.137000
     31 H2           1.9260    -0.0010    -0.9400 ha         1 74F       0.137000
     32 H3          -1.7810     0.0020     1.1600 ha         1 74F       0.146000
     33 H4           9.1440    -0.9310     2.3280 h1         1 74F       0.044950
     34 H5          10.4850    -1.7520     1.5100 h1         1 74F       0.044950
     35 H6          12.1190    -2.9930     2.8530 h1         1 74F       0.044950
     36 H7          11.9270    -3.0400     4.6150 h1         1 74F       0.044950
     37 H8          10.7160     0.6140     3.4040 h1         1 74F       0.056950
     38 H9          10.9470     0.6530     1.6470 h1         1 74F       0.056950
     39 H10         12.3580    -0.6290     4.7510 h1         1 74F       0.056950
     40 H11         13.6920    -1.4270     3.8990 h1         1 74F       0.056950
     41 H12          9.8260    -3.8640     2.6610 h1         1 74F       0.030700
     42 H13          2.0070     1.5360     6.5700 hn         1 74F       0.447800
     43 H14          2.3960     2.6800     5.3270 hn         1 74F       0.447800
     44 H15          3.1700     0.0000     1.1810 ha         1 74F       0.148000
     45 H16          6.5980     0.0430     5.5820 h4         1 74F       0.062100
     46 H17          9.9700    -3.4190     5.6120 hc         1 74F       0.051367
     47 H18         10.4800    -4.8170     4.6550 hc         1 74F       0.051367
     48 H19          8.7670    -4.5780     5.0290 hc         1 74F       0.051367
     49 H20          7.7850    -5.3410     2.0820 h1         1 74F       0.060367
     50 H21          6.5310    -4.6860     1.0200 h1         1 74F       0.060367
     51 H22          8.2080    -4.1540     0.8410 h1         1 74F       0.060367
     52 C18          7.4480    -4.4600     1.5500 c3         1 74F       0.055600
@<TRIPOS>BOND
     1    22    14 1
     2     1     2 ar
     3     1     3 ar
     4     2    19 ar
     5    11    13 1
     6    11    28 1
     7    14    28 1
     8    14     9 1
     9     3    21 ar
    10    13    29 1
    11    19     4 ar
    12    28    10 1
    13     9    15 2
    14     9    27 1
    15    15     8 1
    16    29    12 1
    17    21     4 ar
    18    21    24 1
    19     4    17 1
    20    10    12 1
    21    27    52 1
    22    27    26 1
    23     8    26 2
    24     8     5 1
    25    25     5 ar
    26    25     6 ar
    27    24    16 2
    28    17     6 1
    29    17    16 1
    30     5    20 ar
    31     6     7 ar
    32    20    23 ar
    33     7    23 ar
    34     7    18 1
    35     1    30 1
    36     2    31 1
    37     3    32 1
    38    10    33 1
    39    10    34 1
    40    11    35 1
    41    11    36 1
    42    12    37 1
    43    12    38 1
    44    13    39 1
    45    13    40 1
    46    14    41 1
    47    18    42 1
    48    18    43 1
    49    19    44 1
    50    20    45 1
    51    22    46 1
    52    22    47 1
    53    22    48 1
    54    52    49 1
    55    52    50 1
    56    52    51 1
@<TRIPOS>SUBSTRUCTURE
     1 74F         1 TEMP              0 ****  ****    0 ROOT
