@<TRIPOS>MOLECULE
74G
  103   108     1     0     0
SMALL
bcc


@<TRIPOS>ATOM
      1 C            0.0000     0.0000     0.0000 c3         1 74G       0.008700
      2 N           -2.1280    -6.2620     7.3410 ns         1 74G      -0.199900
      3 O           -0.7110    -4.5580     7.4310 o          1 74G      -0.647100
      4 C2          -1.1610    -1.2590     1.8960 c3         1 74G       0.071400
      5 N2           0.8740   -18.1260    12.7050 nh         1 74G      -0.318000
      6 O2          -1.0310   -11.6180     7.6580 os         1 74G      -0.399600
      7 C3          -0.7570    -1.7290     3.2940 c3         1 74G      -0.018400
      8 N3          -3.0510   -15.2240    16.9000 na         1 74G       0.643900
      9 O3           1.0940   -13.3990     8.4160 os         1 74G      -0.420600
     10 C4          -1.5550    -2.9820     3.6620 c3         1 74G      -0.037400
     11 N4           0.9290     0.0000     2.1790 ns         1 74G      -0.218900
     12 O4           2.1090   -15.8280    12.3920 o          1 74G      -0.655100
     13 C5          -1.1510    -3.4530     5.0600 c3         1 74G      -0.013400
     14 N5           1.4720     0.0000     0.0000 ns         1 74G      -0.211900
     15 C6          -1.9500    -4.7050     5.4280 c3         1 74G      -0.095400
     16 C7          -1.5510    -5.1690     6.8040 c          1 74G       0.571100
     17 C8          -1.7410    -6.7130     8.6800 c3         1 74G       0.050000
     18 C9          -2.5410    -7.9650     9.0470 c3         1 74G       0.197400
     19 C10         -2.8730   -10.2570     8.4290 c3         1 74G       0.212400
     20 C11         -2.4120   -11.3240     7.4350 c3         1 74G       0.208400
     21 C12         -0.4970   -12.6090     6.7770 c3         1 74G       0.209400
     22 C37          1.9100     0.0000     1.2660 c          1 74G       0.623500
     23 C36         -0.3700    -0.0010     1.4880 c3         1 74G       0.009700
     24 S           -0.6470    -2.4920     0.6140 ss         1 74G      -0.406200
     25 C1          -0.5070    -1.2540    -0.7390 c3         1 74G       0.089700
     26 O1          -2.1810    -9.0350     8.1700 os         1 74G      -0.406600
     27 C13          0.9790   -12.8410     7.1050 c3         1 74G       0.211400
     28 C14          2.4380   -13.6560     8.8230 c3         1 74G       0.197400
     29 C15          2.4410   -14.2480    10.2330 c3         1 74G       0.046000
     30 N1           1.7860   -15.5590    10.2140 ns         1 74G      -0.173900
     31 C16          1.6710   -16.2710    11.3520 c          1 74G       0.557100
     32 C17          0.9970   -17.6190    11.3320 c3         1 74G       0.064800
     33 C35          0.7520   -19.5200    12.7160 ca         1 74G      -0.026400
     34 C34          1.7820   -20.4470    12.5050 ca         1 74G      -0.067000
     35 C33          1.5310   -21.8010    12.5240 ca         1 74G      -0.071000
     36 C32          0.2570   -22.2840    12.7530 ca         1 74G      -0.088000
     37 C31         -0.7760   -21.3880    12.9700 ca         1 74G      -0.038000
     38 C30         -0.5280   -20.0310    12.9560 ca         1 74G       0.006900
     39 S1          -1.5870   -18.6290    13.2170 ss         1 74G      -0.394000
     40 C18         -0.2120   -17.4310    13.4330 c3         1 74G       0.262600
     41 C19          0.1390   -17.2530    14.9110 c3         1 74G       0.010900
     42 C20         -0.9900   -16.5440    15.6130 ca         1 74G       0.044700
     43 C29         -2.0930   -17.2600    16.1140 ca         1 74G      -0.028000
     44 C28         -2.1830   -18.6550    15.9790 ca         1 74G      -0.041000
     45 C27         -3.2670   -19.3110    16.4780 ca         1 74G      -0.069000
     46 C26         -4.2900   -18.6160    17.1210 ca         1 74G       0.001000
     47 C25         -4.2350   -17.2640    17.2690 ca         1 74G      -0.142000
     48 C24         -3.1330   -16.5520    16.7680 ca         1 74G      -0.209300
     49 C22         -2.0230   -14.5550    16.4400 ca         1 74G      -0.198300
     50 C21         -0.9680   -15.1900    15.7870 ca         1 74G      -0.119000
     51 H1          -0.3750     0.8960    -0.4790 h1         1 74G       0.038700
     52 H2          -2.8390    -6.7530     6.8340 hn         1 74G       0.177500
     53 H3          -2.2270    -1.0730     1.8400 h1         1 74G       0.058700
     54 H4          -0.9640    -0.9460     4.0130 hc         1 74G       0.034200
     55 H5           0.3020    -1.9600     3.3060 hc         1 74G       0.034200
     56 H6          -2.6140    -2.7520     3.6500 hc         1 74G       0.022700
     57 H7          -1.3480    -3.7660     2.9430 hc         1 74G       0.022700
     58 H8           1.0600     0.0000     3.1710 hn         1 74G       0.222500
     59 H9          -1.3580    -2.6690     5.7780 hc         1 74G       0.031700
     60 H10         -0.0930    -3.6830     5.0720 hc         1 74G       0.031700
     61 H11          2.0520    -0.0000    -0.8150 hn         1 74G       0.215500
     62 H12         -3.0080    -4.4750     5.4160 hc         1 74G       0.027700
     63 H13         -1.7430    -5.4890     4.7090 hc         1 74G       0.027700
     64 H14         -0.6830    -6.9450     8.6910 h1         1 74G       0.034200
     65 H15         -1.9470    -5.9300     9.3990 h1         1 74G       0.034200
     66 H16         -2.3210    -8.2470    10.0700 h1         1 74G      -0.005800
     67 H17         -3.6000    -7.7590     8.9500 h1         1 74G      -0.005800
     68 H18         -2.6590   -10.5870     9.4380 h1         1 74G      -0.005800
     69 H19         -3.9390   -10.0990     8.3190 h1         1 74G      -0.005800
     70 H20         -2.5440   -10.9580     6.4240 h1         1 74G      -0.002800
     71 H21         -2.9990   -12.2240     7.5730 h1         1 74G      -0.002800
     72 H22         -0.5900   -12.2700     5.7530 h1         1 74G      -0.002800
     73 H23         -1.0450   -13.5350     6.9020 h1         1 74G      -0.002800
     74 H24         -0.9290     0.8940     1.7370 h1         1 74G       0.039700
     75 H25         -1.4750    -1.0680    -1.1880 h1         1 74G       0.055200
     76 H26          0.2130    -1.5780    -1.4810 h1         1 74G       0.055200
     77 H27          1.4060   -13.5260     6.3820 h1         1 74G       0.003200
     78 H28          1.5100   -11.8980     7.0660 h1         1 74G       0.003200
     79 H29          3.0000   -12.7290     8.8190 h1         1 74G       0.003200
     80 H30          2.8960   -14.3580     8.1350 h1         1 74G       0.003200
     81 H31          3.4630   -14.3610    10.5760 h1         1 74G       0.035200
     82 H32          1.9060   -13.5870    10.9040 h1         1 74G       0.035200
     83 H33          1.4490   -15.9360     9.3510 hn         1 74G       0.182500
     84 H34          0.0110   -17.5240    10.8930 h1         1 74G       0.044700
     85 H35          1.5890   -18.3100    10.7440 h1         1 74G       0.044700
     86 H36          2.7900   -20.0940    12.3230 ha         1 74G       0.121000
     87 H37          2.3440   -22.4970    12.3540 ha         1 74G       0.117000
     88 H38          0.0680   -23.3510    12.7660 ha         1 74G       0.120000
     89 H39         -1.7800   -21.7520    13.1500 ha         1 74G       0.115000
     90 H40         -0.4470   -16.4840    12.9630 h2         1 74G       0.085700
     91 H41          1.0450   -16.6650    14.9990 hc         1 74G       0.065700
     92 H42          0.2930   -18.2240    15.3650 hc         1 74G       0.065700
     93 H43         -1.3940   -19.2060    15.4810 ha         1 74G       0.164000
     94 H44         -3.3350   -20.3870    16.3740 ha         1 74G       0.129000
     95 H45         -5.1410   -19.1610    17.5090 ha         1 74G       0.125000
     96 H46         -5.0390   -16.7400    17.7710 ha         1 74G       0.132000
     97 H47         -5.0620   -14.6650    17.0490 h1         1 74G       0.060033
     98 H48         -3.9040   -13.4440    17.5960 h1         1 74G       0.060033
     99 H50         -1.9920   -13.4800    16.5710 h4         1 74G       0.163000
    100 H51         -0.1310   -14.6090    15.4170 ha         1 74G       0.160000
    101 H49         -4.2260   -14.8680    18.5950 h1         1 74G       0.060033
    102 O5           3.0890     0.0010     1.5590 o          1 74G      -0.722500
    103 C23         -4.1310   -14.5030    17.5790 c3         1 74G      -0.091400
@<TRIPOS>BOND
     1     1    14 1   
     2     1    23 1   
     3     1    25 1   
     4     1    51 1   
     5     2    16 1   
     6     2    17 1   
     7     2    52 1   
     8     3    16 2   
     9     4     7 1   
    10     4    23 1   
    11     4    24 1   
    12     4    53 1   
    13     5    32 1   
    14     5    33 1   
    15     5    40 1   
    16     6    20 1   
    17     6    21 1   
    18     7    10 1   
    19     7    54 1   
    20     7    55 1   
    21     8    48 1   
    22     8    49 2   
    23     8   103 1   
    24     9    27 1   
    25     9    28 1   
    26    10    13 1   
    27    10    56 1   
    28    10    57 1   
    29    11    22 1   
    30    11    23 1   
    31    11    58 1   
    32    12    31 2   
    33    13    15 1   
    34    13    59 1   
    35    13    60 1   
    36    14    22 1   
    37    14    61 1   
    38    15    16 1   
    39    15    62 1   
    40    15    63 1   
    41    17    18 1   
    42    17    64 1   
    43    17    65 1   
    44    18    26 1   
    45    18    66 1   
    46    18    67 1   
    47    19    20 1   
    48    19    26 1   
    49    19    68 1   
    50    19    69 1   
    51    20    70 1   
    52    20    71 1   
    53    21    27 1   
    54    21    72 1   
    55    21    73 1   
    56    22   102 2   
    57    23    74 1   
    58    24    25 1   
    59    25    75 1   
    60    25    76 1   
    61    27    77 1   
    62    27    78 1   
    63    28    29 1   
    64    28    79 1   
    65    28    80 1   
    66    29    30 1   
    67    29    81 1   
    68    29    82 1   
    69    30    31 1   
    70    30    83 1   
    71    31    32 1   
    72    32    84 1   
    73    32    85 1   
    74    33    34 ar  
    75    33    38 ar  
    76    34    35 ar  
    77    34    86 1   
    78    35    36 ar  
    79    35    87 1   
    80    36    37 ar  
    81    36    88 1   
    82    37    38 ar  
    83    37    89 1   
    84    38    39 1   
    85    39    40 1   
    86    40    41 1   
    87    40    90 1   
    88    41    42 1   
    89    41    91 1   
    90    41    92 1   
    91    42    43 ar  
    92    42    50 ar  
    93    43    44 ar  
    94    43    48 ar  
    95    44    45 ar  
    96    44    93 1   
    97    45    46 ar  
    98    45    94 1   
    99    46    47 ar  
   100    46    95 1   
   101    47    48 ar  
   102    47    96 1   
   103    49    50 ar  
   104    49    99 1   
   105    50   100 1   
   106    97   103 1   
   107    98   103 1   
   108   101   103 1   
@<TRIPOS>SUBSTRUCTURE
     1 74G         1 TEMP              0 ****  ****    0 ROOT
