@<TRIPOS>MOLECULE
molecule
  103   108     1     0     0
SMALL
bcc


@<TRIPOS>ATOM
      1 C            0.0000     0.0000     0.0000 c3         1 74G       0.091700
      2 N           -2.1280    -6.2620     7.3410 ns         1 74G      -0.586900
      3 O           -0.7110    -4.5580     7.4310 o          1 74G      -0.610100
      4 C2          -1.1610    -1.2590     1.8960 c3         1 74G       0.033400
      5 N2           0.8740   -18.1260    12.7050 nh         1 74G      -0.582000
      6 O2          -1.0310   -11.6180     7.6580 os         1 74G      -0.411600
      7 C3          -0.7570    -1.7290     3.2940 c3         1 74G      -0.065400
      8 N3          -3.0510   -15.2240    16.9000 na         1 74G       0.050900
      9 O3           1.0940   -13.3990     8.4160 os         1 74G      -0.430600
     10 C4          -1.5550    -2.9820     3.6620 c3         1 74G      -0.087400
     11 N4           0.9290     0.0000     2.1790 ns         1 74G      -0.596900
     12 O4           2.1090   -15.8280    12.3920 o          1 74G      -0.609100
     13 C5          -1.1510    -3.4530     5.0600 c3         1 74G      -0.065400
     14 N5           1.4720     0.0000     0.0000 ns         1 74G      -0.596900
     15 C6          -1.9500    -4.7050     5.4280 c3         1 74G      -0.156400
     16 C7          -1.5510    -5.1690     6.8040 c          1 74G       0.657100
     17 C8          -1.7410    -6.7130     8.6800 c3         1 74G       0.119000
     18 C9          -2.5410    -7.9650     9.0470 c3         1 74G       0.117400
     19 C10         -2.8730   -10.2570     8.4290 c3         1 74G       0.142400
     20 C11         -2.4120   -11.3240     7.4350 c3         1 74G       0.141400
     21 C12         -0.4970   -12.6090     6.7770 c3         1 74G       0.142400
     22 C37          1.9100     0.0000     1.2660 c          1 74G       0.820500
     23 C36         -0.3700    -0.0010     1.4880 c3         1 74G       0.093700
     24 S           -0.6470    -2.4920     0.6140 ss         1 74G      -0.357200
     25 C1          -0.5070    -1.2540    -0.7390 c3         1 74G       0.014700
     26 O1          -2.1810    -9.0350     8.1700 os         1 74G      -0.417600
     27 C13          0.9790   -12.8410     7.1050 c3         1 74G       0.140400
     28 C14          2.4380   -13.6560     8.8230 c3         1 74G       0.118400
     29 C15          2.4410   -14.2480    10.2330 c3         1 74G       0.117000
     30 N1           1.7860   -15.5590    10.2140 ns         1 74G      -0.573900
     31 C16          1.6710   -16.2710    11.3520 c          1 74G       0.649100
     32 C17          0.9970   -17.6190    11.3320 c3         1 74G       0.092800
     33 C35          0.7520   -19.5200    12.7160 ca         1 74G       0.063600
     34 C34          1.7820   -20.4470    12.5050 ca         1 74G      -0.099000
     35 C33          1.5310   -21.8010    12.5240 ca         1 74G      -0.106000
     36 C32          0.2570   -22.2840    12.7530 ca         1 74G      -0.116000
     37 C31         -0.7760   -21.3880    12.9700 ca         1 74G      -0.083000
     38 C30         -0.5280   -20.0310    12.9560 ca         1 74G       0.001900
     39 S1          -1.5870   -18.6290    13.2170 ss         1 74G      -0.351000
     40 C18         -0.2120   -17.4310    13.4330 c3         1 74G       0.306600
     41 C19          0.1390   -17.2530    14.9110 c3         1 74G      -0.048100
     42 C20         -0.9900   -16.5440    15.6130 ca         1 74G       0.069700
     43 C29         -2.0930   -17.2600    16.1140 ca         1 74G      -0.072000
     44 C28         -2.1830   -18.6550    15.9790 ca         1 74G      -0.044000
     45 C27         -3.2670   -19.3110    16.4780 ca         1 74G      -0.124000
     46 C26         -4.2900   -18.6160    17.1210 ca         1 74G      -0.030000
     47 C25         -4.2350   -17.2640    17.2690 ca         1 74G      -0.176000
     48 C24         -3.1330   -16.5520    16.7680 ca         1 74G       0.012700
     49 C22         -2.0230   -14.5550    16.4400 ca         1 74G       0.012700
     50 C21         -0.9680   -15.1900    15.7870 ca         1 74G      -0.190000
     51 H1          -0.3750     0.8960    -0.4790 h1         1 74G       0.067700
     52 H2          -2.8390    -6.7530     6.8340 hn         1 74G       0.317500
     53 H3          -2.2270    -1.0730     1.8400 h1         1 74G       0.076700
     54 H4          -0.9640    -0.9460     4.0130 hc         1 74G       0.060200
     55 H5           0.3020    -1.9600     3.3060 hc         1 74G       0.060200
     56 H6          -2.6140    -2.7520     3.6500 hc         1 74G       0.047200
     57 H7          -1.3480    -3.7660     2.9430 hc         1 74G       0.047200
     58 H8           1.0600     0.0000     3.1710 hn         1 74G       0.364500
     59 H9          -1.3580    -2.6690     5.7780 hc         1 74G       0.060200
     60 H10         -0.0930    -3.6830     5.0720 hc         1 74G       0.060200
     61 H11          2.0520    -0.0000    -0.8150 hn         1 74G       0.362500
     62 H12         -3.0080    -4.4750     5.4160 hc         1 74G       0.060200
     63 H13         -1.7430    -5.4890     4.7090 hc         1 74G       0.060200
     64 H14         -0.6830    -6.9450     8.6910 h1         1 74G       0.064200
     65 H15         -1.9470    -5.9300     9.3990 h1         1 74G       0.064200
     66 H16         -2.3210    -8.2470    10.0700 h1         1 74G       0.028700
     67 H17         -3.6000    -7.7590     8.9500 h1         1 74G       0.028700
     68 H18         -2.6590   -10.5870     9.4380 h1         1 74G       0.030700
     69 H19         -3.9390   -10.0990     8.3190 h1         1 74G       0.030700
     70 H20         -2.5440   -10.9580     6.4240 h1         1 74G       0.033700
     71 H21         -2.9990   -12.2240     7.5730 h1         1 74G       0.033700
     72 H22         -0.5900   -12.2700     5.7530 h1         1 74G       0.034200
     73 H23         -1.0450   -13.5350     6.9020 h1         1 74G       0.034200
     74 H24         -0.9290     0.8940     1.7370 h1         1 74G       0.068700
     75 H25         -1.4750    -1.0680    -1.1880 h1         1 74G       0.080700
     76 H26          0.2130    -1.5780    -1.4810 h1         1 74G       0.080700
     77 H27          1.4060   -13.5260     6.3820 h1         1 74G       0.040700
     78 H28          1.5100   -11.8980     7.0660 h1         1 74G       0.040700
     79 H29          3.0000   -12.7290     8.8190 h1         1 74G       0.039200
     80 H30          2.8960   -14.3580     8.1350 h1         1 74G       0.039200
     81 H31          3.4630   -14.3610    10.5760 h1         1 74G       0.065700
     82 H32          1.9060   -13.5870    10.9040 h1         1 74G       0.065700
     83 H33          1.4490   -15.9360     9.3510 hn         1 74G       0.324500
     84 H34          0.0110   -17.5240    10.8930 h1         1 74G       0.075700
     85 H35          1.5890   -18.3100    10.7440 h1         1 74G       0.075700
     86 H36          2.7900   -20.0940    12.3230 ha         1 74G       0.152000
     87 H37          2.3440   -22.4970    12.3540 ha         1 74G       0.150000
     88 H38          0.0680   -23.3510    12.7660 ha         1 74G       0.151000
     89 H39         -1.7800   -21.7520    13.1500 ha         1 74G       0.143000
     90 H40         -0.4470   -16.4840    12.9630 h2         1 74G       0.109700
     91 H41          1.0450   -16.6650    14.9990 hc         1 74G       0.101700
     92 H42          0.2930   -18.2240    15.3650 hc         1 74G       0.101700
     93 H43         -1.3940   -19.2060    15.4810 ha         1 74G       0.185000
     94 H44         -3.3350   -20.3870    16.3740 ha         1 74G       0.165000
     95 H45         -5.1410   -19.1610    17.5090 ha         1 74G       0.164000
     96 H46         -5.0390   -16.7400    17.7710 ha         1 74G       0.157000
     97 H47         -5.0620   -14.6650    17.0490 h1         1 74G       0.089700
     98 H48         -3.9040   -13.4440    17.5960 h1         1 74G       0.089700
     99 H50         -1.9920   -13.4800    16.5710 h4         1 74G       0.196000
    100 H51         -0.1310   -14.6090    15.4170 ha         1 74G       0.196000
    101 H49         -4.2260   -14.8680    18.5950 h1         1 74G       0.089700
    102 O5           3.0890     0.0010     1.5590 o          1 74G      -0.677500
    103 C23         -4.1310   -14.5030    17.5790 c3         1 74G      -0.016400
@<TRIPOS>BOND
     1    19    20 1   
     2    19    26 1   
     3    20     6 1   
     4    18    26 1   
     5    18    17 1   
     6     6    21 1   
     7    21    27 1   
     8    17     2 1   
     9    27     9 1   
    10     2    16 1   
    11     9    28 1   
    12    16     3 2   
    13    16    15 1   
    14    28    29 1   
    15    35    36 ar  
    16    35    34 ar  
    17    36    37 ar  
    18    15    13 1   
    19    29    30 1   
    20    34    33 ar  
    21    13    10 1   
    22    37    38 ar  
    23    30    31 1   
    24    12    31 2   
    25    33    38 ar  
    26    33     5 1   
    27    31    32 1   
    28    38    39 1   
    29    10     7 1   
    30     5    32 1   
    31     5    40 1   
    32     7     4 1   
    33    39    40 1   
    34    40    41 1   
    35     4    24 1   
    36     4    23 1   
    37    41    42 1   
    38    24    25 1   
    39    23    11 1   
    40    23     1 1   
    41    11    22 1   
    42    42    50 ar  
    43    42    43 ar  
    44    44    43 ar  
    45    44    45 ar  
    46    50    49 ar  
    47    22   102 2   
    48    22    14 1   
    49    43    48 ar  
    50    25     1 1   
    51     1    14 1   
    52    45    46 ar  
    53    49     8 1   
    54    48     8 2   
    55    48    47 ar  
    56    46    47 ar  
    57     8   103 1   
    58     1    51 1   
    59     2    52 1   
    60     4    53 1   
    61     7    54 1   
    62     7    55 1   
    63    10    56 1   
    64    10    57 1   
    65    11    58 1   
    66    13    59 1   
    67    13    60 1   
    68    14    61 1   
    69    15    62 1   
    70    15    63 1   
    71    17    64 1   
    72    17    65 1   
    73    18    66 1   
    74    18    67 1   
    75    19    68 1   
    76    19    69 1   
    77    20    70 1   
    78    20    71 1   
    79    21    72 1   
    80    21    73 1   
    81    23    74 1   
    82    25    75 1   
    83    25    76 1   
    84    27    77 1   
    85    27    78 1   
    86    28    79 1   
    87    28    80 1   
    88    29    81 1   
    89    29    82 1   
    90    30    83 1   
    91    32    84 1   
    92    32    85 1   
    93    34    86 1   
    94    35    87 1   
    95    36    88 1   
    96    37    89 1   
    97    40    90 1   
    98    41    91 1   
    99    41    92 1   
   100    44    93 1   
   101    45    94 1   
   102    46    95 1   
   103    47    96 1   
   104   103    97 1   
   105   103    98 1   
   106    49    99 1   
   107    50   100 1   
   108   103   101 1   
@<TRIPOS>SUBSTRUCTURE
     1 74G         1 TEMP              0 ****  ****    0 ROOT
