@<TRIPOS>MOLECULE
molecule
   50    54     1     0     0
SMALL
bcc


@<TRIPOS>ATOM
      1 C1           0.0000     0.0000     0.0000 ca         1 74H      -0.121000
      2 C2           1.3830     0.0000     0.0000 ca         1 74H      -0.120500
      3 C3          -0.6910     0.0010     1.1970 ca         1 74H      -0.120500
      4 C7           7.5060    -0.5930     4.1200 ca         1 74H       0.405900
      5 C8           9.9750     3.6350     3.0920 cc         1 74H      -0.114300
      6 C9           1.3820     0.0020     2.3950 ca         1 74H      -0.060300
      7 C10          7.0720     0.7090     3.8810 ca         1 74H       0.289000
      8 C11         11.9930     3.5840     3.9790 cd         1 74H       0.178800
      9 C12          9.2490     1.4400     3.8890 ca         1 74H       0.298500
     10 C13          9.6820     0.1290     4.1240 ca         1 74H       0.613900
     11 C14          5.6230     0.9950     3.7500 cd         1 74H       0.501000
     12 C15          3.4820     0.6790     3.6730 cc         1 74H       0.512800
     13 C16         13.3660     3.9510     4.3830 c          1 74H       0.448600
     14 C19          2.1360     0.0020     3.7000 cx         1 74H      -0.131000
     15 N23         11.3600     2.4670     4.2800 nc         1 74H      -0.531800
     16 N25          5.0920     2.1760     3.5250 nc         1 74H      -0.503800
     17 N26         10.1820     2.4750     3.7680 na         1 74H       0.193600
     18 N29         14.0960     3.1030     5.1340 nz         1 74H      -0.675400
     19 C4           2.0740     0.0000     1.1970 ca         1 74H      -0.124500
     20 C5          -0.0000     0.0010     2.3940 ca         1 74H      -0.124500
     21 C6          11.1070     4.3690     3.2030 cd         1 74H      -0.220300
     22 C17          1.3170     0.1100     4.9880 cx         1 74H      -0.102400
     23 C18          1.9750    -1.2180     4.6080 cx         1 74H      -0.102400
     24 N21          8.7970    -0.8510     4.2380 nb         1 74H      -0.688000
     25 N22          7.9580     1.6960     3.7710 nb         1 74H      -0.609000
     26 N24          4.6370     0.0900     3.8350 nd         1 74H      -0.761000
     27 N27          3.7000     1.9910     3.4730 na         1 74H      -0.044400
     28 N28         11.0400    -0.1450     4.2370 nv         1 74H      -1.011500
     29 O30         13.8360     5.0160     4.0370 o          1 74H      -0.409100
     30 H1          -0.5420    -0.0000    -0.9380 ha         1 74H       0.138000
     31 H2           1.9240    -0.0010    -0.9380 ha         1 74H       0.137000
     32 H3          -1.7750     0.0000     1.1970 ha         1 74H       0.137000
     33 H4           6.7830    -1.3950     4.2130 h4         1 74H       0.079100
     34 H5           9.0730     3.9190     2.5630 h4         1 74H       0.227000
     35 H6           3.1170     4.0000     3.4380 h1         1 74H       0.067367
     36 H7           1.8500     2.8620     3.9160 h1         1 74H       0.067367
     37 H8           2.3430     2.9750     2.2210 h1         1 74H       0.067367
     38 H9          14.9640     3.5370     5.3780 hn         1 74H       0.479467
     39 H10         13.5900     2.8760     5.9670 hn         1 74H       0.479467
     40 H11          3.1570    -0.0000     1.1980 ha         1 74H       0.135000
     41 H12         -0.5420     0.0020     3.3320 ha         1 74H       0.135000
     42 H13         11.2950     5.3510     2.7860 ha         1 74H       0.198000
     43 H14          0.2430     0.1530     4.8560 hc         1 74H       0.089450
     44 H15          1.7900     0.6510     5.7980 hc         1 74H       0.089450
     45 H16          2.8500    -1.4880     5.1870 hc         1 74H       0.089450
     46 H17          1.3030    -1.9860     4.2450 hc         1 74H       0.089450
     47 H18         11.6990     0.3490     3.6690 hn         1 74H       0.446300
     48 H19         11.3540    -0.8640     4.8590 hn         1 74H       0.446300
     49 C20          2.6870     3.0240     3.2470 c3         1 74H       0.055600
     50 H293        14.2720     2.2650     4.6150 hn         1 74H       0.479467
@<TRIPOS>BOND
     1     1     3 ar
     2     1     2 ar
     3     3    20 ar
     4     2    19 ar
     5    20     6 ar
     6    19     6 ar
     7     6    14 1
     8    14    22 1
     9    14    23 1
    10    14    12 1
    11    21     5 2
    12    21     8 1
    13    22    23 1
    14    29    13 2
    15     5    17 1
    16    12    26 2
    17    12    27 1
    18    26    11 1
    19     8    13 1
    20     8    15 2
    21    13    18 1
    22    17    15 1
    23    17     9 1
    24    27    49 1
    25    27    16 1
    26    25     9 ar
    27    25     7 ar
    28    11     7 1
    29    11    16 2
    30     9    10 ar
    31     7     4 ar
    32    10    28 1
    33    10    24 ar
    34     4    24 ar
    35     1    30 1
    36     2    31 1
    37     3    32 1
    38     4    33 1
    39     5    34 1
    40    49    35 1
    41    49    36 1
    42    49    37 1
    43    18    38 1
    44    18    39 1
    45    19    40 1
    46    20    41 1
    47    21    42 1
    48    22    43 1
    49    22    44 1
    50    23    45 1
    51    23    46 1
    52    28    47 1
    53    28    48 1
    54    50    18 1
@<TRIPOS>SUBSTRUCTURE
     1 74H         1 TEMP              0 ****  ****    0 ROOT
