@<TRIPOS>MOLECULE
74J
   50    54     1     0     0
SMALL
bcc


@<TRIPOS>ATOM
      1 C1           0.0000     0.0000     0.0000 ca         1 74J      -0.094000
      2 C2           1.3820     0.0000     0.0000 ca         1 74J      -0.089500
      3 C3          -0.6910    -0.0010     1.1970 ca         1 74J      -0.089500
      4 C7           7.5060    -0.5950     4.1100 ca         1 74J       0.370900
      5 C8           9.9930     3.6300     3.1030 cc         1 74J      -0.110300
      6 C9          11.1490     4.3730     3.2340 cd         1 74J      -0.500900
      7 C10          1.3820     0.0010     2.3950 ca         1 74J      -0.063300
      8 C11          7.0720     0.7060     3.8770 ca         1 74J       0.260000
      9 C12          9.2500     1.4380     3.8820 ca         1 74J       0.102500
     10 C13          9.6840     0.1250     4.1110 ca         1 74J       0.446900
     11 C14          5.6220     0.9930     3.7510 cc         1 74J       0.488000
     12 C15          3.4810     0.6770     3.6720 cd         1 74J       0.332800
     13 C16         11.3970     5.7140     2.6710 c          1 74J       0.397700
     14 C19          2.1350     0.0000     3.6990 cx         1 74J      -0.117000
     15 N23          7.9570     1.6950     3.7690 nb         1 74J      -0.497000
     16 N25          5.0910     2.1760     3.5310 nd         1 74J      -0.650800
     17 N26         10.1820     2.4730     3.7630 na         1 74J       0.619600
     18 N29         12.5790     6.3240     2.8800 nz         1 74J       0.208600
     19 C4           2.0740     0.0000     1.1980 ca         1 74J      -0.106500
     20 C5          -0.0010    -0.0000     2.3940 ca         1 74J      -0.106500
     21 C6          12.0510     3.6080     4.0070 cd         1 74J       0.417200
     22 C17          1.3170     0.1060     4.9880 cx         1 74J      -0.052400
     23 C18          1.9760    -1.2210     4.6070 cx         1 74J      -0.052400
     24 N21          8.7970    -0.8540     4.2230 nb         1 74J      -0.543000
     25 N22         11.4700     2.4810     4.3100 nc         1 74J      -0.593800
     26 N24          4.6370     0.0890     3.8350 nc         1 74J      -0.676000
     27 N27          3.7000     1.9910     3.4830 na         1 74J       0.377600
     28 N28         11.0400    -0.1470     4.2310 nv         1 74J      -0.646500
     29 O30         10.5330     6.2680     2.0200 o          1 74J      -0.456100
     30 H1          -0.5420    -0.0000    -0.9380 ha         1 74J       0.109000
     31 H2           1.9240     0.0000    -0.9380 ha         1 74J       0.107500
     32 H3          -1.7740    -0.0010     1.1960 ha         1 74J       0.107500
     33 H4           6.7840    -1.3980     4.2030 h4         1 74J       0.025100
     34 H5           9.1510     3.8690     2.4650 h4         1 74J       0.186000
     35 H6           3.1150     3.9990     3.4550 h1         1 74J       0.033367
     36 H7           1.8490     2.8590     3.9290 h1         1 74J       0.033367
     37 H8           2.3430     2.9790     2.2340 h1         1 74J       0.033367
     38 H9          12.5770     7.2190     2.4320 hn         1 74J       0.242467
     39 H10         12.7240     6.4430     3.8630 hn         1 74J       0.242467
     40 H11          3.1570    -0.0000     1.1980 ha         1 74J       0.112000
     41 H12         -0.5430    -0.0010     3.3310 ha         1 74J       0.112000
     42 H13         13.0540     3.9040     4.2920 h4         1 74J      -0.003900
     43 H14          1.7900     0.6460     5.7990 hc         1 74J       0.057450
     44 H15          0.2420     0.1490     4.8580 hc         1 74J       0.057450
     45 H16          2.8510    -1.4920     5.1850 hc         1 74J       0.057450
     46 H17          1.3040    -1.9890     4.2440 hc         1 74J       0.057450
     47 H18         11.4640    -0.1890     5.1360 hn         1 74J       0.293800
     48 H19         11.5820    -0.3550     3.4150 hn         1 74J       0.293800
     49 C20          2.6860     3.0240     3.2610 c3         1 74J       0.017600
     50 H293        13.3140     5.7730     2.4810 hn         1 74J       0.242467
@<TRIPOS>BOND
     1     1     2 ar  
     2     1     3 ar  
     3     1    30 1   
     4     2    19 ar  
     5     2    31 1   
     6     3    20 ar  
     7     3    32 1   
     8     4     8 ar  
     9     4    24 ar  
    10     4    33 1   
    11     5     6 2   
    12     5    17 1   
    13     5    34 1   
    14     6    13 1   
    15     6    21 1   
    16     7    14 1   
    17     7    19 ar  
    18     7    20 ar  
    19     8    11 1   
    20     8    15 ar  
    21     9    10 ar  
    22     9    15 ar  
    23     9    17 1   
    24    10    24 ar  
    25    10    28 1   
    26    11    16 2   
    27    11    26 1   
    28    12    14 1   
    29    12    26 2   
    30    12    27 1   
    31    13    18 1   
    32    13    29 2   
    33    14    22 1   
    34    14    23 1   
    35    16    27 1   
    36    17    25 1   
    37    18    38 1   
    38    18    39 1   
    39    18    50 1   
    40    19    40 1   
    41    20    41 1   
    42    21    25 2   
    43    21    42 1   
    44    22    23 1   
    45    22    43 1   
    46    22    44 1   
    47    23    45 1   
    48    23    46 1   
    49    27    49 1   
    50    28    47 1   
    51    28    48 1   
    52    35    49 1   
    53    36    49 1   
    54    37    49 1   
@<TRIPOS>SUBSTRUCTURE
     1 74J         1 TEMP              0 ****  ****    0 ROOT
