@<TRIPOS>MOLECULE
molecule
   50    54     1     0     0
SMALL
bcc


@<TRIPOS>ATOM
      1 C1           0.0000     0.0000     0.0000 ca         1 74J      -0.121000
      2 C2           1.3820     0.0000     0.0000 ca         1 74J      -0.121000
      3 C3          -0.6910    -0.0010     1.1970 ca         1 74J      -0.121000
      4 C7           7.5060    -0.5950     4.1100 ca         1 74J       0.371900
      5 C8           9.9930     3.6300     3.1030 cc         1 74J       0.056700
      6 C9          11.1490     4.3730     3.2340 cd         1 74J      -0.467900
      7 C10          1.3820     0.0010     2.3950 ca         1 74J      -0.060300
      8 C11          7.0720     0.7060     3.8770 ca         1 74J       0.323000
      9 C12          9.2500     1.4380     3.8820 ca         1 74J       0.352500
     10 C13          9.6840     0.1250     4.1110 ca         1 74J       0.607900
     11 C14          5.6220     0.9930     3.7510 cd         1 74J       0.497000
     12 C15          3.4810     0.6770     3.6720 cc         1 74J       0.512800
     13 C16         11.3970     5.7140     2.6710 c          1 74J       0.540700
     14 C19          2.1350     0.0000     3.6990 cx         1 74J      -0.132000
     15 N23          7.9570     1.6950     3.7690 nb         1 74J      -0.653000
     16 N25          5.0910     2.1760     3.5310 nc         1 74J      -0.506800
     17 N26         10.1820     2.4730     3.7630 na         1 74J       0.109600
     18 N29         12.5790     6.3240     2.8800 nz         1 74J      -0.673400
     19 C4           2.0740     0.0000     1.1980 ca         1 74J      -0.124000
     20 C5          -0.0010    -0.0000     2.3940 ca         1 74J      -0.124000
     21 C6          12.0510     3.6080     4.0070 cd         1 74J       0.340200
     22 C17          1.3170     0.1060     4.9880 cx         1 74J      -0.101400
     23 C18          1.9760    -1.2210     4.6070 cx         1 74J      -0.101400
     24 N21          8.7970    -0.8540     4.2230 nb         1 74J      -0.648000
     25 N22         11.4700     2.4810     4.3100 nc         1 74J      -0.424800
     26 N24          4.6370     0.0890     3.8350 nd         1 74J      -0.756000
     27 N27          3.7000     1.9910     3.4830 na         1 74J      -0.044400
     28 N28         11.0400    -0.1470     4.2310 nv         1 74J      -1.067500
     29 O30         10.5330     6.2680     2.0200 o          1 74J      -0.440100
     30 H1          -0.5420    -0.0000    -0.9380 ha         1 74J       0.137000
     31 H2           1.9240     0.0000    -0.9380 ha         1 74J       0.136500
     32 H3          -1.7740    -0.0010     1.1960 ha         1 74J       0.136500
     33 H4           6.7840    -1.3980     4.2030 h4         1 74J       0.077100
     34 H5           9.1510     3.8690     2.4650 h4         1 74J       0.226000
     35 H6           3.1150     3.9990     3.4550 h1         1 74J       0.066700
     36 H7           1.8490     2.8590     3.9290 h1         1 74J       0.066700
     37 H8           2.3430     2.9790     2.2340 h1         1 74J       0.066700
     38 H9          12.5770     7.2190     2.4320 hn         1 74J       0.475800
     39 H10         12.7240     6.4430     3.8630 hn         1 74J       0.475800
     40 H11          3.1570    -0.0000     1.1980 ha         1 74J       0.135000
     41 H12         -0.5430    -0.0010     3.3310 ha         1 74J       0.135000
     42 H13         13.0540     3.9040     4.2920 h4         1 74J       0.047100
     43 H14          1.7900     0.6460     5.7990 hc         1 74J       0.089950
     44 H15          0.2420     0.1490     4.8580 hc         1 74J       0.089950
     45 H16          2.8510    -1.4920     5.1850 hc         1 74J       0.089950
     46 H17          1.3040    -1.9890     4.2440 hc         1 74J       0.089950
     47 H18         11.4640    -0.1890     5.1360 hn         1 74J       0.451300
     48 H19         11.5820    -0.3550     3.4150 hn         1 74J       0.451300
     49 C20          2.6860     3.0240     3.2610 c3         1 74J       0.055600
     50 H293        13.3140     5.7730     2.4810 hn         1 74J       0.475800
@<TRIPOS>BOND
     1     1     3 ar
     2     1     2 ar
     3     3    20 ar
     4     2    19 ar
     5    20     7 ar
     6    19     7 ar
     7     7    14 1
     8    29    13 2
     9    13    18 1
    10    13     6 1
    11    14    22 1
    12    14    23 1
    13    14    12 1
    14    22    23 1
    15     6     5 2
    16     6    21 1
    17    12    26 2
    18    12    27 1
    19     5    17 1
    20    26    11 1
    21    27    49 1
    22    27    16 1
    23    21    25 2
    24    11    16 2
    25    11     8 1
    26    17    25 1
    27    17     9 1
    28    15     8 ar
    29    15     9 ar
    30     8     4 ar
    31     9    10 ar
    32     4    24 ar
    33    10    24 ar
    34    10    28 1
    35     1    30 1
    36     2    31 1
    37     3    32 1
    38     4    33 1
    39     5    34 1
    40    49    35 1
    41    49    36 1
    42    49    37 1
    43    18    38 1
    44    18    39 1
    45    19    40 1
    46    20    41 1
    47    21    42 1
    48    22    43 1
    49    22    44 1
    50    23    45 1
    51    23    46 1
    52    28    47 1
    53    28    48 1
    54    50    18 1
@<TRIPOS>SUBSTRUCTURE
     1 74J         1 TEMP              0 ****  ****    0 ROOT
