@<TRIPOS>MOLECULE
molecule
   50    54     1     0     0
SMALL
bcc


@<TRIPOS>ATOM
      1 C1           0.0000     0.0000     0.0000 cx         1 74K      -0.104900
      2 C2           1.5290     0.0000     0.0000 cx         1 74K      -0.126000
      3 C3           0.7640     0.0000     1.3260 cx         1 74K      -0.104900
      4 N6           1.7550    -5.0350    -4.4690 nb         1 74K      -0.693000
      5 C7           2.6170    -6.0410    -4.4160 ca         1 74K       0.602900
      6 C8           3.5650    -6.0970    -3.3810 ca         1 74K       0.289500
      7 C11          4.5320    -7.2190    -3.3180 cc         1 74K      -0.272800
      8 C12          2.7510    -3.0710    -1.4910 cd         1 74K       0.509000
      9 C14          2.2250    -1.2750    -0.4030 cc         1 74K       0.509800
     10 C19          2.8250     1.3740    -1.6440 ca         1 74K      -0.120500
     11 C20          3.4580     2.5450    -2.0140 ca         1 74K      -0.124000
     12 C21          3.4930     3.6170    -1.1420 ca         1 74K      -0.121000
     13 C22          2.8940     3.5190     0.0990 ca         1 74K      -0.124000
     14 C24          5.8230    -7.1470    -2.8860 cd         1 74K      -0.035300
     15 N25          6.3570    -8.3930    -2.9850 n          1 74K       0.048300
     16 N26          5.3690    -9.2500    -3.4890 nd         1 74K      -0.574800
     17 C27          4.2820    -8.5580    -3.6900 cc         1 74K       0.444200
     18 N29          8.0190   -10.0220    -2.8030 nz         1 74K      -0.663400
     19 C4           2.7230    -4.1380    -2.5200 ca         1 74K       0.264000
     20 C5           1.7850    -4.0880    -3.5490 ca         1 74K       0.401900
     21 N9           3.5920    -5.1440    -2.4600 nb         1 74K      -0.601000
     22 N13          1.9290    -2.0140    -1.4380 nd         1 74K      -0.758000
     23 N15          3.2610    -1.8450     0.2410 na         1 74K      -0.050400
     24 N16          3.5840    -3.0090    -0.4750 nc         1 74K      -0.510800
     25 C17          3.9200    -1.3480     1.4520 c3         1 74K       0.056600
     26 C18          2.2260     1.2740    -0.4010 ca         1 74K      -0.060300
     27 C23          2.2590     2.3470     0.4700 ca         1 74K      -0.120500
     28 C28          7.6160    -8.7440    -2.6550 c          1 74K       0.536900
     29 O30          8.3870    -7.9100    -2.2270 o          1 74K      -0.454100
     30 H1          -0.4670     0.9390    -0.2700 hc         1 74K       0.088200
     31 H2          -0.4680    -0.9390    -0.2690 hc         1 74K       0.088200
     32 H3           0.7650    -0.9390     1.8650 hc         1 74K       0.088200
     33 H4           0.7650     0.9390     1.8650 hc         1 74K       0.088200
     34 H5           2.7970     0.5340    -2.3270 ha         1 74K       0.137000
     35 H6           3.9280     2.6230    -2.9870 ha         1 74K       0.135500
     36 H7           3.9900     4.5350    -1.4320 ha         1 74K       0.136000
     37 H8           2.9210     4.3590     0.7820 ha         1 74K       0.135500
     38 H9           6.3300    -6.2580    -2.5300 h4         1 74K       0.234000
     39 H10          3.3460    -8.9450    -4.0750 h4         1 74K       0.092100
     40 H11          7.9020   -10.3010    -3.7570 hn         1 74K       0.490133
     41 H12          7.4710   -10.6150    -2.2120 hn         1 74K       0.490133
     42 H13          1.0780    -3.2680    -3.5960 h4         1 74K       0.072100
     43 H14          3.4370    -7.4590    -5.6950 hn         1 74K       0.445800
     44 H15          1.7060    -7.3710    -5.7270 hn         1 74K       0.445800
     45 H16          3.1740    -1.1450     2.2110 h1         1 74K       0.064033
     46 H17          4.4590    -0.4370     1.2220 h1         1 74K       0.064033
     47 H18          4.6130    -2.0960     1.8180 h1         1 74K       0.064033
     48 H19          1.7890     2.2700     1.4430 ha         1 74K       0.137000
     49 H293         8.9870   -10.0960    -2.5580 hn         1 74K       0.490133
     50 N10          2.5850    -7.0360    -5.3840 nv         1 74K      -1.029500
@<TRIPOS>BOND
     1    12    13 ar
     2    12    11 ar
     3    13    27 ar
     4    11    10 ar
     5    27    26 ar
     6    10    26 ar
     7    26     2 1
     8    29    28 2
     9    18    28 1
    10    28    15 1
    11     2     3 1
    12     2     1 1
    13     2     9 1
    14     3     1 1
    15    15    14 1
    16    15    16 1
    17    14     7 2
    18     9    22 2
    19     9    23 1
    20    22     8 1
    21    16    17 2
    22    23    25 1
    23    23    24 1
    24     7    17 1
    25     7     6 1
    26     8    24 2
    27     8    19 1
    28    21    19 ar
    29    21     6 ar
    30    19    20 ar
    31     6     5 ar
    32     5     4 ar
    33     5    50 1
    34    20     4 ar
    35     1    30 1
    36     1    31 1
    37     3    32 1
    38     3    33 1
    39    10    34 1
    40    11    35 1
    41    12    36 1
    42    13    37 1
    43    14    38 1
    44    17    39 1
    45    18    40 1
    46    18    41 1
    47    20    42 1
    48    50    43 1
    49    50    44 1
    50    25    45 1
    51    25    46 1
    52    25    47 1
    53    27    48 1
    54    49    18 1
@<TRIPOS>SUBSTRUCTURE
     1 74K         1 TEMP              0 ****  ****    0 ROOT
