@<TRIPOS>MOLECULE
molecule
   56    60     1     0     0
SMALL
bcc


@<TRIPOS>ATOM
      1 C1           0.0000     0.0000     0.0000 c3         1 74L       0.057600
      2 C3           2.2700     0.0000     1.0780 cc         1 74L       0.494800
      3 N6           2.3050    -0.0000    -1.1250 nc         1 74L      -0.495800
      4 C7           4.7650    -0.0000    -1.5110 ca         1 74L       0.285000
      5 C8           6.0200     0.0000    -0.9060 ca         1 74L       0.342900
      6 C10          7.0240     0.0010    -2.9690 ca         1 74L       0.567900
      7 C11          5.7610     0.0110    -3.5840 ca         1 74L       0.382500
      8 C13          5.6530     0.0210    -5.0620 cd         1 74L      -0.336800
      9 C14          6.5240     0.6760    -5.9560 cd         1 74L       0.390200
     10 C22          5.8100    -2.3120    -9.8970 c3         1 74L       0.230600
     11 C27          0.8740     1.1250     2.9560 cx         1 74L      -0.110400
     12 C30          0.3800    -2.8270     4.5560 ca         1 74L      -0.126500
     13 C31          1.2820    -3.8410     4.2950 ca         1 74L      -0.125000
     14 C32          2.3580    -3.6100     3.4590 ca         1 74L      -0.126500
     15 C33          2.5320    -2.3650     2.8830 ca         1 74L      -0.118500
     16 N2           1.4650     0.0000     0.0000 na         1 74L      -0.055400
     17 N4           3.5090    -0.0000     0.6660 nd         1 74L      -0.758000
     18 C5           3.5410     0.0000    -0.6750 cd         1 74L       0.515000
     19 N9           7.1150     0.0010    -1.6470 nb         1 74L      -0.678000
     20 N12          4.6640     0.0050    -2.8370 nb         1 74L      -0.630000
     21 N15          6.1010     0.4530    -7.1720 nc         1 74L      -0.501800
     22 N16          4.9530    -0.3450    -7.1050 na         1 74L      -0.096100
     23 C17          4.6950    -0.6050    -5.8070 cc         1 74L      -0.033300
     24 S18          4.0690    -0.8860    -8.3960 s6         1 74L       1.544900
     25 O19          3.6380    -2.1980    -8.0660 o          1 74L      -0.619300
     26 O20          3.1740     0.1640    -8.7370 o          1 74L      -0.619300
     27 N21          5.1130    -1.0430    -9.6730 n3         1 74L      -0.811500
     28 C23          5.3390     0.0870   -10.5780 c3         1 74L       0.230600
     29 N24          8.1750     0.0020    -3.7460 nv         1 74L      -1.074500
     30 C25          1.8180     0.0060     2.5160 cx         1 74L      -0.118000
     31 C26          2.3330     1.1330     3.4130 cx         1 74L      -0.110400
     32 C28          1.6290    -1.3520     3.1430 ca         1 74L      -0.054300
     33 C29          0.5530    -1.5810     3.9800 ca         1 74L      -0.118500
     34 H1          -0.3610    -0.6990     0.7450 h1         1 74L       0.061033
     35 H2          -0.3610    -0.2950    -0.9780 h1         1 74L       0.061033
     36 H3          -0.3610     0.9940     0.2330 h1         1 74L       0.061033
     37 H4           6.0990    -0.0000     0.1740 h4         1 74L       0.053100
     38 H5           7.3940     1.2620    -5.6830 h4         1 74L       0.057100
     39 H6           5.1370    -3.0140   -10.3740 h1         1 74L       0.046033
     40 H7           6.6690    -2.1450   -10.5350 h1         1 74L       0.046033
     41 H8           6.1390    -2.7160    -8.9470 h1         1 74L       0.046033
     42 H9           0.6200     1.8500     2.1910 hc         1 74L       0.085700
     43 H10          0.1480     0.8540     3.7130 hc         1 74L       0.085700
     44 H11         -0.4630    -3.0080     5.2120 ha         1 74L       0.132500
     45 H12          1.1460    -4.8160     4.7470 ha         1 74L       0.131000
     46 H13          3.0650    -4.4050     3.2550 ha         1 74L       0.132500
     47 H14          3.3750    -2.1840     2.2270 ha         1 74L       0.140500
     48 H15          3.8730    -1.1970    -5.4240 h4         1 74L       0.206000
     49 H16          4.9250     0.9880   -10.1410 h1         1 74L       0.046033
     50 H17          4.8570    -0.1090   -11.5280 h1         1 74L       0.046033
     51 H18          6.4030     0.2170   -10.7330 h1         1 74L       0.046033
     52 H19          8.5140    -0.8540    -4.1380 hn         1 74L       0.438800
     53 H20          8.6960     0.8480    -3.8650 hn         1 74L       0.438800
     54 H21          2.4990     0.8670     4.4500 hc         1 74L       0.085700
     55 H22          2.9710     1.8620     2.9280 hc         1 74L       0.085700
     56 H23         -0.1550    -0.7870     4.1850 ha         1 74L       0.140500
@<TRIPOS>BOND
     1    13    12 ar  
     2    13    14 ar  
     3    12    33 ar  
     4    14    15 ar  
     5    33    32 ar  
     6    25    24 2   
     7    28    27 1   
     8    15    32 ar  
     9    32    30 1   
    10    27    24 1   
    11    27    10 1   
    12    24    26 2   
    13    24    22 1   
    14    30    11 1   
    15    30    31 1   
    16    30     2 1   
    17    22    23 1   
    18    22    21 1   
    19    11    31 1   
    20    23     8 2   
    21     2    17 2   
    22     2    16 1   
    23    17    18 1   
    24    21     9 2   
    25     8     9 1   
    26     8     7 1   
    27    16     1 1   
    28    16     3 1   
    29    20     7 ar  
    30    20     4 ar  
    31    18     3 2   
    32    18     4 1   
    33     7     6 ar  
    34     4     5 ar  
    35     6    29 1   
    36     6    19 ar  
    37     5    19 ar  
    38     1    34 1   
    39     1    35 1   
    40     1    36 1   
    41     5    37 1   
    42     9    38 1   
    43    10    39 1   
    44    10    40 1   
    45    10    41 1   
    46    11    42 1   
    47    11    43 1   
    48    12    44 1   
    49    13    45 1   
    50    14    46 1   
    51    15    47 1   
    52    23    48 1   
    53    28    49 1   
    54    28    50 1   
    55    28    51 1   
    56    29    52 1   
    57    29    53 1   
    58    31    54 1   
    59    31    55 1   
    60    33    56 1   
@<TRIPOS>SUBSTRUCTURE
     1 74L         1 TEMP              0 ****  ****    0 ROOT
