@<TRIPOS>MOLECULE
74L
   56    60     1     0     0
SMALL
bcc


@<TRIPOS>ATOM
      1 C1           0.0000     0.0000     0.0000 c3         1 74L       0.022600
      2 C3           2.2700     0.0000     1.0780 cc         1 74L       0.315800
      3 N6           2.3050    -0.0000    -1.1250 nc         1 74L      -0.638800
      4 C7           4.7650    -0.0000    -1.5110 ca         1 74L       0.234000
      5 C8           6.0200     0.0000    -0.9060 ca         1 74L       0.320900
      6 C10          7.0240     0.0010    -2.9690 ca         1 74L       0.390900
      7 C11          5.7610     0.0110    -3.5840 ca         1 74L       0.351500
      8 C13          5.6530     0.0210    -5.0620 cc         1 74L      -0.370800
      9 C14          6.5240     0.6760    -5.9560 cc         1 74L       0.433200
     10 C22          5.8100    -2.3120    -9.8970 c3         1 74L       0.279100
     11 C27          0.8740     1.1250     2.9560 cx         1 74L      -0.063400
     12 C30          0.3800    -2.8270     4.5560 ca         1 74L      -0.096500
     13 C31          1.2820    -3.8410     4.2950 ca         1 74L      -0.100000
     14 C32          2.3580    -3.6100     3.4590 ca         1 74L      -0.096500
     15 C33          2.5320    -2.3650     2.8830 ca         1 74L      -0.100500
     16 N2           1.4650     0.0000     0.0000 na         1 74L       0.358600
     17 N4           3.5090    -0.0000     0.6660 nd         1 74L      -0.682000
     18 C5           3.5410     0.0000    -0.6750 cd         1 74L       0.512000
     19 N9           7.1150     0.0010    -1.6470 nb         1 74L      -0.568000
     20 N12          4.6640     0.0050    -2.8370 nb         1 74L      -0.507000
     21 N15          6.1010     0.4530    -7.1720 nd         1 74L      -0.590800
     22 N16          4.9530    -0.3450    -7.1050 na         1 74L       0.252900
     23 C17          4.6950    -0.6050    -5.8070 cd         1 74L      -0.084300
     24 S18          4.0690    -0.8860    -8.3960 s6         1 74L       1.140900
     25 O19          3.6380    -2.1980    -8.0660 o          1 74L      -0.569300
     26 O20          3.1740     0.1640    -8.7370 o          1 74L      -0.569300
     27 N21          5.1130    -1.0430    -9.6730 n3         1 74L      -0.518500
     28 C23          5.3390     0.0870   -10.5780 c3         1 74L       0.279100
     29 N24          8.1750     0.0020    -3.7460 nv         1 74L      -0.645500
     30 C25          1.8180     0.0060     2.5160 cx         1 74L      -0.099000
     31 C26          2.3330     1.1330     3.4130 cx         1 74L      -0.063400
     32 C28          1.6290    -1.3520     3.1430 ca         1 74L      -0.057300
     33 C29          0.5530    -1.5810     3.9800 ca         1 74L      -0.100500
     34 H1          -0.3610    -0.6990     0.7450 h1         1 74L       0.028033
     35 H2          -0.3610    -0.2950    -0.9780 h1         1 74L       0.028033
     36 H3          -0.3610     0.9940     0.2330 h1         1 74L       0.028033
     37 H4           6.0990    -0.0000     0.1740 h4         1 74L       0.008100
     38 H5           7.3940     1.2620    -5.6830 h4         1 74L       0.011100
     39 H6           5.1370    -3.0140   -10.3740 h1         1 74L       0.005867
     40 H7           6.6690    -2.1450   -10.5350 h1         1 74L       0.005867
     41 H8           6.1390    -2.7160    -8.9470 h1         1 74L       0.005867
     42 H9           0.6200     1.8500     2.1910 hc         1 74L       0.054950
     43 H10          0.1480     0.8540     3.7130 hc         1 74L       0.054950
     44 H11         -0.4630    -3.0080     5.2120 ha         1 74L       0.104000
     45 H12          1.1460    -4.8160     4.7470 ha         1 74L       0.103000
     46 H13          3.0650    -4.4050     3.2550 ha         1 74L       0.104000
     47 H14          3.3750    -2.1840     2.2270 ha         1 74L       0.118000
     48 H15          3.8730    -1.1970    -5.4240 h4         1 74L       0.167000
     49 H16          4.9250     0.9880   -10.1410 h1         1 74L       0.005867
     50 H17          4.8570    -0.1090   -11.5280 h1         1 74L       0.005867
     51 H18          6.4030     0.2170   -10.7330 h1         1 74L       0.005867
     52 H19          8.5140    -0.8540    -4.1380 hn         1 74L       0.278800
     53 H20          8.6960     0.8480    -3.8650 hn         1 74L       0.278800
     54 H21          2.4990     0.8670     4.4500 hc         1 74L       0.054950
     55 H22          2.9710     1.8620     2.9280 hc         1 74L       0.054950
     56 H23         -0.1550    -0.7870     4.1850 ha         1 74L       0.118000
@<TRIPOS>BOND
     1     1    16 1   
     2     1    34 1   
     3     1    35 1   
     4     1    36 1   
     5     2    16 1   
     6     2    17 2   
     7     2    30 1   
     8     3    16 1   
     9     3    18 2   
    10     4     5 ar  
    11     4    18 1   
    12     4    20 ar  
    13     5    19 ar  
    14     5    37 1   
    15     6     7 ar  
    16     6    19 ar  
    17     6    29 1   
    18     7     8 1   
    19     7    20 ar  
    20     8     9 1   
    21     8    23 2   
    22     9    21 2   
    23     9    38 1   
    24    10    27 1   
    25    10    39 1   
    26    10    40 1   
    27    10    41 1   
    28    11    30 1   
    29    11    31 1   
    30    11    42 1   
    31    11    43 1   
    32    12    13 ar  
    33    12    33 ar  
    34    12    44 1   
    35    13    14 ar  
    36    13    45 1   
    37    14    15 ar  
    38    14    46 1   
    39    15    32 ar  
    40    15    47 1   
    41    17    18 1   
    42    21    22 1   
    43    22    23 1   
    44    22    24 1   
    45    23    48 1   
    46    24    25 2   
    47    24    26 2   
    48    24    27 1   
    49    27    28 1   
    50    28    49 1   
    51    28    50 1   
    52    28    51 1   
    53    29    52 1   
    54    29    53 1   
    55    30    31 1   
    56    30    32 1   
    57    31    54 1   
    58    31    55 1   
    59    32    33 ar  
    60    33    56 1   
@<TRIPOS>SUBSTRUCTURE
     1 74L         1 TEMP              0 ****  ****    0 ROOT
