@<TRIPOS>MOLECULE
molecule
   59    60     1     0     0
SMALL
bcc


@<TRIPOS>ATOM
      1 C2           0.0000     0.0000     0.0000 cx         1 74M      -0.024900
      2 O1           1.4290     0.0000     0.0000 op         1 74M      -0.305600
      3 C3           0.8170     0.0000     1.2930 cx         1 74M      -0.028900
      4 C4           0.8670    -1.2750     2.0940 c          1 74M       0.670100
      5 O4           1.9080    -1.8920     2.1890 o          1 74M      -0.580100
      6 N1          -0.2440    -1.7340     2.7030 ns         1 74M      -0.562900
      7 C5          -0.2030    -2.9910     3.4540 c3         1 74M       0.054700
      8 C6          -1.5000    -3.7350     3.2570 c          1 74M       0.683100
      9 O5          -2.4550    -3.1690     2.7690 o          1 74M      -0.604100
     10 C14         -0.0080    -2.6910     4.9400 c3         1 74M      -0.086700
     11 C16         -0.8140    -1.4480     5.3220 c3         1 74M      -0.081400
     12 C15          1.4760    -2.4430     5.2200 c3         1 74M      -0.089100
     13 C17         -2.3080    -1.7530     5.2060 c3         1 74M      -0.114100
     14 N2          -1.5970    -5.0280     3.6230 n          1 74M      -0.480800
     15 C7          -2.7360    -5.9150     3.3440 c3         1 74M       0.075700
     16 C8          -3.9850    -5.3820     3.9980 c          1 74M       0.627100
     17 O6          -3.9160    -4.4440     4.7560 o          1 74M      -0.531000
     18 C20         -2.3890    -7.3010     3.9250 c3         1 74M      -0.083400
     19 C19         -0.8400    -7.2690     4.0100 c3         1 74M      -0.097400
     20 C18         -0.5800    -5.7860     4.3760 c3         1 74M       0.091000
     21 O7          -5.1730    -5.9500     3.7380 os         1 74M      -0.441900
     22 C9          -6.3770    -5.4380     4.3680 c3         1 74M       0.147700
     23 N3          -1.7130     1.7460     0.3720 ns         1 74M      -0.585900
     24 C11         -2.3960     2.9870    -0.0040 c3         1 74M       0.113000
     25 C12         -3.4940     3.2940     1.0150 c3         1 74M      -0.103400
     26 C13         -4.2070     4.5890     0.6230 c3         1 74M      -0.088100
     27 C10         -0.7020     1.2770    -0.3870 c          1 74M       0.667100
     28 O2          -0.3570     1.8820    -1.3790 o          1 74M      -0.569100
     29 H2          -0.4550    -0.9500    -0.2510 h1         1 74M       0.118700
     30 H3           0.8490     0.9510     1.8110 h1         1 74M       0.116700
     31 HN1         -1.1050    -1.2300     2.6170 hn         1 74M       0.334500
     32 H5           0.6190    -3.5980     3.0960 h1         1 74M       0.100700
     33 H14         -0.3490    -3.5360     5.5260 hc         1 74M       0.060700
     34 H161        -0.5810    -1.1650     6.3410 hc         1 74M       0.041700
     35 H162        -0.5590    -0.6330     4.6540 hc         1 74M       0.041700
     36 H151         1.6840    -2.6370     6.2650 hc         1 74M       0.042033
     37 H152         1.7200    -1.4130     4.9890 hc         1 74M       0.042033
     38 H153         2.0750    -3.1020     4.6040 hc         1 74M       0.042033
     39 H171        -2.6200    -1.6490     4.1740 hc         1 74M       0.047367
     40 H172        -2.8670    -1.0600     5.8240 hc         1 74M       0.047367
     41 H173        -2.4970    -2.7670     5.5400 hc         1 74M       0.047367
     42 H7          -2.8820    -5.9950     2.2730 h1         1 74M       0.088700
     43 H201        -2.7180    -8.0880     3.2570 hc         1 74M       0.066700
     44 H202        -2.8220    -7.4200     4.9110 hc         1 74M       0.066700
     45 H191        -0.3960    -7.5130     3.0530 hc         1 74M       0.063200
     46 H192        -0.4830    -7.9270     4.7920 hc         1 74M       0.063200
     47 H181         0.4150    -5.4910     4.0650 h1         1 74M       0.057200
     48 H182        -0.7100    -5.6330     5.4410 h1         1 74M       0.057200
     49 H91         -6.2510    -5.4420     5.4440 h1         1 74M       0.048700
     50 H92         -6.5580    -4.4240     4.0300 h1         1 74M       0.048700
     51 H93         -7.2190    -6.0630     4.1000 h1         1 74M       0.048700
     52 HN3         -2.0300     1.2210     1.1630 hn         1 74M       0.313500
     53 H111        -2.8360     2.8730    -0.9870 h1         1 74M       0.056700
     54 H112        -1.6810     3.8010    -0.0210 h1         1 74M       0.056700
     55 H121        -4.2090     2.4790     1.0310 hc         1 74M       0.045200
     56 H122        -3.0530     3.4070     1.9980 hc         1 74M       0.045200
     57 H131        -4.9850     4.8060     1.3450 hc         1 74M       0.039367
     58 H132        -4.6480     4.4750    -0.3600 hc         1 74M       0.039367
     59 H133        -3.4930     5.4030     0.6060 hc         1 74M       0.039367
@<TRIPOS>BOND
     1     1     2 1   
     2     1     3 1   
     3     1    27 1   
     4     1    29 1   
     5     2     3 1   
     6     3     4 1   
     7     3    30 1   
     8     4     5 2   
     9     4     6 1   
    10     6     7 1   
    11     6    31 1   
    12     7     8 1   
    13     7    10 1   
    14     7    32 1   
    15     8     9 2   
    16     8    14 1   
    17    10    11 1   
    18    10    12 1   
    19    10    33 1   
    20    11    13 1   
    21    11    34 1   
    22    11    35 1   
    23    12    36 1   
    24    12    37 1   
    25    12    38 1   
    26    13    39 1   
    27    13    40 1   
    28    13    41 1   
    29    14    15 1   
    30    14    20 1   
    31    15    16 1   
    32    15    18 1   
    33    15    42 1   
    34    16    17 2   
    35    16    21 1   
    36    18    19 1   
    37    18    43 1   
    38    18    44 1   
    39    19    20 1   
    40    19    45 1   
    41    19    46 1   
    42    20    47 1   
    43    20    48 1   
    44    21    22 1   
    45    22    49 1   
    46    22    50 1   
    47    22    51 1   
    48    23    24 1   
    49    23    27 1   
    50    23    52 1   
    51    24    25 1   
    52    24    53 1   
    53    24    54 1   
    54    25    26 1   
    55    25    55 1   
    56    25    56 1   
    57    26    57 1   
    58    26    58 1   
    59    26    59 1   
    60    27    28 2   
@<TRIPOS>SUBSTRUCTURE
     1 74M         1 TEMP              0 ****  ****    0 ROOT
