@<TRIPOS>MOLECULE
74N
   53    57     1     0     0
SMALL
bcc


@<TRIPOS>ATOM
      1 C1           0.0000     0.0000     0.0000 c3         1 74N       0.020600
      2 C3           2.2700     0.0000     1.0770 cc         1 74N       0.328800
      3 N6           2.3050    -0.0010    -1.1260 nc         1 74N      -0.659800
      4 C7           4.7650     0.0010    -1.5110 ca         1 74N       0.191000
      5 C8           6.0230     0.0100    -0.9050 ca         1 74N       0.399900
      6 C10          7.0250     0.0020    -2.9690 ca         1 74N       0.427900
      7 C11          5.7620    -0.0010    -3.5830 cp         1 74N       0.175500
      8 C13          5.6540    -0.0100    -5.0600 cp         1 74N      -0.009500
      9 C14          6.4720    -0.8550    -5.8140 ca         1 74N      -0.089500
     10 C15          6.3720    -0.8640    -7.1870 ca         1 74N      -0.028500
     11 C16          5.4540    -0.0280    -7.8250 ca         1 74N      -0.256600
     12 C19          5.3460    -0.0380    -9.3000 c          1 74N       0.357700
     13 C24          1.0640    -1.2310     3.0210 cx         1 74N      -0.057400
     14 C27          0.4410     1.4190     4.0500 ca         1 74N      -0.104500
     15 C30          1.6340     3.7260     3.1030 ca         1 74N      -0.092000
     16 C31          2.0020     2.4970     2.5880 ca         1 74N      -0.104500
     17 N2           1.4650     0.0000     0.0000 na         1 74N       0.368600
     18 N4           3.5100     0.0040     0.6640 nd         1 74N      -0.681000
     19 C5           3.5410     0.0000    -0.6750 cd         1 74N       0.509000
     20 N9           7.1160     0.0110    -1.6450 nb         1 74N      -0.603000
     21 N12          4.6650    -0.0020    -2.8360 nb         1 74N      -0.454000
     22 C17          4.6360     0.8160    -7.0700 ca         1 74N      -0.028500
     23 C18          4.7320     0.8200    -5.6980 ca         1 74N      -0.089500
     24 O20          6.0570    -0.7730    -9.9560 o          1 74N      -0.440100
     25 N21          4.4590     0.7680    -9.9160 nz         1 74N       0.199600
     26 N22          8.1740     0.0030    -3.7440 nv         1 74N      -0.547500
     27 C23          1.8190     0.0010     2.5160 cx         1 74N      -0.109000
     28 C25          2.5040    -0.9770     3.4720 cx         1 74N      -0.057400
     29 C26          1.4090     1.3420     3.0670 ca         1 74N      -0.060300
     30 C28          0.0650     2.6500     4.5560 ca         1 74N      -0.092000
     31 C29          0.6620     3.8030     4.0820 ca         1 74N      -0.096000
     32 H1          -0.3610     0.8910     0.4990 h1         1 74N       0.030700
     33 H2          -0.3610    -0.0130    -1.0210 h1         1 74N       0.030700
     34 H3          -0.3610    -0.8780     0.5220 h1         1 74N       0.030700
     35 H4           6.1020     0.0170     0.1750 h4         1 74N       0.018100
     36 H5           7.1840    -1.5030    -5.3180 ha         1 74N       0.142000
     37 H6           7.0070    -1.5190    -7.7720 ha         1 74N       0.106000
     38 H7           0.3010    -1.0390     3.7660 hc         1 74N       0.056700
     39 H8           0.9350    -2.0290     2.3010 hc         1 74N       0.056700
     40 H9          -0.0250     0.5150     4.4230 ha         1 74N       0.113500
     41 H10          2.0990     4.6310     2.7300 ha         1 74N       0.106500
     42 H11          2.7620     2.4370     1.8190 ha         1 74N       0.113500
     43 H12          3.9210     1.4630    -7.5650 ha         1 74N       0.106000
     44 H13          4.0970     1.4750    -5.1130 ha         1 74N       0.142000
     45 H14          4.5210     0.6370   -10.9060 hn         1 74N       0.246133
     46 H15          4.6640     1.7220    -9.6920 hn         1 74N       0.246133
     47 H16          8.9840    -0.5000    -3.4390 hn         1 74N       0.281300
     48 H17          8.1970     0.5130    -4.6050 hn         1 74N       0.281300
     49 H18          3.2530    -1.6200     3.0260 hc         1 74N       0.056700
     50 H19          2.6210    -0.6300     4.4920 hc         1 74N       0.056700
     51 H20         -0.6960     2.7110     5.3250 ha         1 74N       0.106500
     52 H21          0.3710     4.7670     4.4810 ha         1 74N       0.107000
     53 H213         3.5340     0.5470    -9.6040 hn         1 74N       0.246133
@<TRIPOS>BOND
     1     1    17 1   
     2     1    32 1   
     3     1    33 1   
     4     1    34 1   
     5     2    17 1   
     6     2    18 2   
     7     2    27 1   
     8     3    17 1   
     9     3    19 2   
    10     4     5 ar  
    11     4    19 1   
    12     4    21 ar  
    13     5    20 ar  
    14     5    35 1   
    15     6     7 ar  
    16     6    20 ar  
    17     6    26 1   
    18     7     8 1   
    19     7    21 ar  
    20     8     9 ar  
    21     8    23 ar  
    22     9    10 ar  
    23     9    36 1   
    24    10    11 ar  
    25    10    37 1   
    26    11    12 1   
    27    11    22 ar  
    28    12    24 2   
    29    12    25 1   
    30    13    27 1   
    31    13    28 1   
    32    13    38 1   
    33    13    39 1   
    34    14    29 ar  
    35    14    30 ar  
    36    14    40 1   
    37    15    16 ar  
    38    15    31 ar  
    39    15    41 1   
    40    16    29 ar  
    41    16    42 1   
    42    18    19 1   
    43    22    23 ar  
    44    22    43 1   
    45    23    44 1   
    46    25    45 1   
    47    25    46 1   
    48    25    53 1   
    49    26    47 1   
    50    26    48 1   
    51    27    28 1   
    52    27    29 1   
    53    28    49 1   
    54    28    50 1   
    55    30    31 ar  
    56    30    51 1   
    57    31    52 1   
@<TRIPOS>SUBSTRUCTURE
     1 74N         1 TEMP              0 ****  ****    0 ROOT
