@<TRIPOS>MOLECULE
molecule
   53    57     1     0     0
SMALL
bcc


@<TRIPOS>ATOM
      1 C1           0.0000     0.0000     0.0000 c3         1 74N       0.056600
      2 C3           2.2700     0.0000     1.0770 cc         1 74N       0.507800
      3 N6           2.3050    -0.0010    -1.1260 nc         1 74N      -0.511800
      4 C7           4.7650     0.0010    -1.5110 ca         1 74N       0.256000
      5 C8           6.0230     0.0100    -0.9050 ca         1 74N       0.408900
      6 C10          7.0250     0.0020    -2.9690 ca         1 74N       0.609900
      7 C11          5.7620    -0.0010    -3.5830 cp         1 74N       0.243500
      8 C13          5.6540    -0.0100    -5.0600 cp         1 74N      -0.025500
      9 C14          6.4720    -0.8550    -5.8140 ca         1 74N      -0.109000
     10 C15          6.3720    -0.8640    -7.1870 ca         1 74N      -0.070000
     11 C16          5.4540    -0.0280    -7.8250 ca         1 74N      -0.227600
     12 C19          5.3460    -0.0380    -9.3000 c          1 74N       0.506700
     13 C24          1.0640    -1.2310     3.0210 cx         1 74N      -0.105400
     14 C27          0.4410     1.4190     4.0500 ca         1 74N      -0.122500
     15 C30          1.6340     3.7260     3.1030 ca         1 74N      -0.122500
     16 C31          2.0020     2.4970     2.5880 ca         1 74N      -0.122500
     17 N2           1.4650     0.0000     0.0000 na         1 74N      -0.050400
     18 N4           3.5100     0.0040     0.6640 nd         1 74N      -0.758000
     19 C5           3.5410     0.0000    -0.6750 cd         1 74N       0.511000
     20 N9           7.1160     0.0110    -1.6450 nb         1 74N      -0.701000
     21 N12          4.6650    -0.0020    -2.8360 nb         1 74N      -0.591000
     22 C17          4.6360     0.8160    -7.0700 ca         1 74N      -0.070000
     23 C18          4.7320     0.8200    -5.6980 ca         1 74N      -0.109000
     24 O20          6.0570    -0.7730    -9.9560 o          1 74N      -0.426100
     25 N21          4.4590     0.7680    -9.9160 nz         1 74N      -0.678400
     26 N22          8.1740     0.0030    -3.7440 nv         1 74N      -1.022500
     27 C23          1.8190     0.0010     2.5160 cx         1 74N      -0.126000
     28 C25          2.5040    -0.9770     3.4720 cx         1 74N      -0.105400
     29 C26          1.4090     1.3420     3.0670 ca         1 74N      -0.057300
     30 C28          0.0650     2.6500     4.5560 ca         1 74N      -0.122500
     31 C29          0.6620     3.8030     4.0820 ca         1 74N      -0.122000
     32 H1          -0.3610     0.8910     0.4990 h1         1 74N       0.064033
     33 H2          -0.3610    -0.0130    -1.0210 h1         1 74N       0.064033
     34 H3          -0.3610    -0.8780     0.5220 h1         1 74N       0.064033
     35 H4           6.1020     0.0170     0.1750 h4         1 74N       0.071100
     36 H5           7.1840    -1.5030    -5.3180 ha         1 74N       0.178000
     37 H6           7.0070    -1.5190    -7.7720 ha         1 74N       0.139000
     38 H7           0.3010    -1.0390     3.7660 hc         1 74N       0.088450
     39 H8           0.9350    -2.0290     2.3010 hc         1 74N       0.088450
     40 H9          -0.0250     0.5150     4.4230 ha         1 74N       0.136500
     41 H10          2.0990     4.6310     2.7300 ha         1 74N       0.135500
     42 H11          2.7620     2.4370     1.8190 ha         1 74N       0.136500
     43 H12          3.9210     1.4630    -7.5650 ha         1 74N       0.139000
     44 H13          4.0970     1.4750    -5.1130 ha         1 74N       0.178000
     45 H14          4.5210     0.6370   -10.9060 hn         1 74N       0.476800
     46 H15          4.6640     1.7220    -9.6920 hn         1 74N       0.476800
     47 H16          8.9840    -0.5000    -3.4390 hn         1 74N       0.448300
     48 H17          8.1970     0.5130    -4.6050 hn         1 74N       0.448300
     49 H18          3.2530    -1.6200     3.0260 hc         1 74N       0.088450
     50 H19          2.6210    -0.6300     4.4920 hc         1 74N       0.088450
     51 H20         -0.6960     2.7110     5.3250 ha         1 74N       0.135500
     52 H21          0.3710     4.7670     4.4810 ha         1 74N       0.136000
     53 H213         3.5340     0.5470    -9.6040 hn         1 74N       0.476800
@<TRIPOS>BOND
     1    20     5 ar  
     2    20     6 ar  
     3    26     6 1   
     4     5     4 ar  
     5     6     7 ar  
     6     9    10 ar  
     7     9     8 ar  
     8     4    19 1   
     9     4    21 ar  
    10     3    19 2   
    11     3    17 1   
    12     7    21 ar  
    13     7     8 1   
    14    19    18 1   
    15    10    11 ar  
    16     1    17 1   
    17     8    23 ar  
    18    17     2 1   
    19    18     2 2   
    20     2    27 1   
    21    11    12 1   
    22    11    22 ar  
    23    13    28 1   
    24    13    27 1   
    25    23    22 ar  
    26    25    12 1   
    27    12    24 2   
    28    28    27 1   
    29    27    29 1   
    30    29    16 ar  
    31    29    14 ar  
    32    16    15 ar  
    33    14    30 ar  
    34    15    31 ar  
    35    30    31 ar  
    36     1    32 1   
    37     1    33 1   
    38     1    34 1   
    39     5    35 1   
    40     9    36 1   
    41    10    37 1   
    42    13    38 1   
    43    13    39 1   
    44    14    40 1   
    45    15    41 1   
    46    16    42 1   
    47    22    43 1   
    48    23    44 1   
    49    25    45 1   
    50    25    46 1   
    51    26    47 1   
    52    26    48 1   
    53    28    49 1   
    54    28    50 1   
    55    30    51 1   
    56    31    52 1   
    57    53    25 1   
@<TRIPOS>SUBSTRUCTURE
     1 74N         1 TEMP              0 ****  ****    0 ROOT
