@<TRIPOS>MOLECULE
molecule
   50    55     1     0     0
SMALL
bcc


@<TRIPOS>ATOM
      1 C1           0.0000     0.0000     0.0000 ca         1 74Q      -0.125000
      2 C2           1.3830     0.0000     0.0000 ca         1 74Q      -0.125000
      3 C3          -0.6920    -0.0010     1.1970 ca         1 74Q      -0.125000
      4 C7          -0.0010    -0.0010     2.3940 ca         1 74Q      -0.121000
      5 C8          -0.8560    -7.0420    11.5820 ca         1 74Q      -0.052000
      6 C9           0.7200    -5.2300    10.1740 ca         1 74Q      -0.122000
      7 C10         -0.2320    -0.2440     8.5690 ca         1 74Q       0.342900
      8 C11          1.3820    -0.0010     2.3940 ca         1 74Q      -0.058300
      9 C12         -1.3660    -5.7740    11.2740 ca         1 74Q       0.016400
     10 C13         -0.5630    -4.8650    10.5630 ca         1 74Q      -0.047200
     11 C14         -0.0040    -1.4750     7.9600 ca         1 74Q       0.302000
     12 C15         -0.9360    -2.5460     9.7670 ca         1 74Q       0.410500
     13 C16         -1.1690    -1.3040    10.3730 ca         1 74Q       0.585900
     14 C19          3.6560     0.1480     3.6370 cx         1 74Q      -0.106400
     15 C20          2.7940     1.3100     4.1340 cx         1 74Q      -0.106400
     16 C21          2.1350    -0.0000     3.7000 cx         1 74Q      -0.124000
     17 C22          1.9830    -3.1010     3.6700 c3         1 74Q       0.058600
     18 N23         -0.8040    -0.1880     9.7590 nb         1 74Q      -0.664000
     19 N25         -0.3640    -2.6000     8.5760 nb         1 74Q      -0.646000
     20 N26          1.0430    -0.4780     5.9050 nc         1 74Q      -0.759000
     21 N29         -1.3210    -3.7240    10.4130 na         1 74Q       0.031100
     22 C4           0.4080    -7.3800    11.1960 ca         1 74Q      -0.153000
     23 C5           1.2020    -6.4800    10.4980 ca         1 74Q      -0.092000
     24 C6           2.0740     0.0000     1.1970 ca         1 74Q      -0.121000
     25 C17          0.6380    -1.5340     6.6240 cc         1 74Q       0.511000
     26 C18          1.5660    -0.8850     4.7790 cd         1 74Q       0.496800
     27 N24         -2.5500    -5.1670    11.5230 nc         1 74Q      -0.207400
     28 N27          0.9050    -2.6310     5.9500 nd         1 74Q      -0.494800
     29 N28         -2.5520    -3.9770    11.0350 nd         1 74Q      -0.120400
     30 N30          1.5080    -2.2290     4.7470 na         1 74Q      -0.052400
     31 N31         -1.7710    -1.2440    11.6250 nv         1 74Q      -1.070500
     32 H1          -0.5410    -0.0000    -0.9380 ha         1 74Q       0.132000
     33 H2           1.9250     0.0010    -0.9380 ha         1 74Q       0.134000
     34 H3          -1.7750    -0.0010     1.1970 ha         1 74Q       0.134000
     35 H4          -0.5430    -0.0020     3.3320 ha         1 74Q       0.138500
     36 H6           1.3440    -4.5310     9.6300 ha         1 74Q       0.149000
     37 H7           0.0640     0.6700     8.0680 h4         1 74Q       0.059100
     38 H8           4.0740     0.2670     2.6450 hc         1 74Q       0.087700
     39 H9           4.2100    -0.3840     4.4020 hc         1 74Q       0.087700
     40 H10          2.6850     2.1390     3.4460 hc         1 74Q       0.087700
     41 H11          2.8210     1.4880     5.2030 hc         1 74Q       0.087700
     42 H12          2.0750    -4.1150     4.0400 h1         1 74Q       0.062367
     43 H13          2.9490    -2.7540     3.3230 h1         1 74Q       0.062367
     44 H14          1.2750    -3.0790     2.8500 h1         1 74Q       0.062367
     45 H15          0.8000    -8.3590    11.4440 ha         1 74Q       0.137000
     46 H16          2.2030    -6.7650    10.2000 ha         1 74Q       0.138000
     47 H17          3.1570    -0.0000     1.1980 ha         1 74Q       0.138500
     48 H18         -1.2090    -1.2760    12.4520 hn         1 74Q       0.447800
     49 H19         -2.7620    -1.1230    11.6980 hn         1 74Q       0.447800
     50 H5          -1.4650    -7.7540    12.1260 ha         1 74Q       0.145000
@<TRIPOS>BOND
     1     1     3 ar  
     2     1     2 ar  
     3     3     4 ar  
     4     2    24 ar  
     5     4     8 ar  
     6    24     8 ar  
     7     8    16 1   
     8    23    22 ar  
     9    23     6 ar  
    10    22     5 ar  
    11     6    10 ar  
    12     5     9 ar  
    13    16    14 1   
    14    16    15 1   
    15    16    26 1   
    16    14    15 1   
    17    10     9 ar  
    18    10    21 1   
    19     9    27 1   
    20    26    20 2   
    21    26    30 1   
    22    20    25 1   
    23    30    17 1   
    24    30    28 1   
    25    21    12 1   
    26    21    29 1   
    27    27    29 2   
    28    25    28 2   
    29    25    11 1   
    30    19    12 ar  
    31    19    11 ar  
    32    12    13 ar  
    33    11     7 ar  
    34    13    31 1   
    35    13    18 ar  
    36     7    18 ar  
    37     1    32 1   
    38     2    33 1   
    39     3    34 1   
    40     4    35 1   
    41     5    50 1   
    42     6    36 1   
    43     7    37 1   
    44    14    38 1   
    45    14    39 1   
    46    15    40 1   
    47    15    41 1   
    48    17    42 1   
    49    17    43 1   
    50    17    44 1   
    51    22    45 1   
    52    23    46 1   
    53    24    47 1   
    54    31    48 1   
    55    31    49 1   
@<TRIPOS>SUBSTRUCTURE
     1 74Q         1 TEMP              0 ****  ****    0 ROOT
