@<TRIPOS>MOLECULE
molecule
   70    76     1     0     0
SMALL
bcc


@<TRIPOS>ATOM
      1 C10          1.4690     0.0000     0.0000 c3         1 74S       0.096800
      2 C13          4.1780    -1.2700    -1.3770 ca         1 74S      -0.119000
      3 C15          6.2510    -0.0740    -1.4400 ca         1 74S      -0.099000
      4 C17          4.1770     1.1210    -1.5040 ca         1 74S      -0.119000
      5 C21          2.5270    -4.4040     3.1830 cc         1 74S       0.280600
      6 C22          2.1160    -3.2300     2.6490 cd         1 74S      -0.305600
      7 C26          3.4610    -5.2650     7.3990 cp         1 74S      -0.082500
      8 C28          3.5540    -6.5430     5.4830 ca         1 74S       0.008300
      9 C32          3.3740    -4.7240     8.6800 ca         1 74S      -0.067500
     10 C31          3.4710    -3.3610     8.8550 ca         1 74S      -0.156500
     11 C30          3.6520    -2.5280     7.7620 ca         1 74S      -0.095000
     12 C29          3.7380    -3.0490     6.4890 ca         1 74S      -0.159000
     13 C25          3.6440    -4.4240     6.2920 ca         1 74S       0.008300
     14 C27          3.4050    -6.6420     6.8730 cp         1 74S      -0.082500
     15 C33          3.2480    -7.8910     7.4720 ca         1 74S      -0.067500
     16 C34          3.2370    -9.0260     6.6920 ca         1 74S      -0.156500
     17 C35          3.3830    -8.9300     5.3160 ca         1 74S      -0.095000
     18 C36          3.5410    -7.7020     4.7120 ca         1 74S      -0.159000
     19 N24          3.6960    -5.2070     5.1530 na         1 74S      -0.084300
     20 C23          3.8740    -4.6950     3.7910 c3         1 74S       0.048000
     21 N20          1.5000    -5.2530     3.0700 nc         1 74S      -0.312000
     22 N19          0.5170    -4.6450     2.5040 nd         1 74S      -0.184800
     23 N18          0.8460    -3.4320     2.2290 na         1 74S       0.107400
     24 C07         -0.0130    -2.4360     1.5820 c3         1 74S       0.065000
     25 C08          0.2730    -2.4190     0.0780 c3         1 74S      -0.124400
     26 C06          0.2710    -1.0540     2.1780 c3         1 74S      -0.124400
     27 C04         -0.5240     0.0000     1.3920 c3         1 74S       0.127500
     28 C03         -1.9760    -0.5110     1.2500 c3         1 74S      -0.104400
     29 C02         -1.9750    -1.3520    -0.0430 c3         1 74S      -0.104400
     30 C01         -0.5230    -1.2720    -0.5660 c3         1 74S       0.127500
     31 N05          0.0000     0.0000     0.0000 n4         1 74S      -0.585800
     32 C72         -0.5170     1.1540    -0.7480 c3         1 74S       0.101100
     33 C11          1.9790    -0.0760    -1.4400 c3         1 74S      -0.048100
     34 C12          3.4860    -0.0750    -1.4400 ca         1 74S      -0.125300
     35 C14          5.5610    -1.2700    -1.3770 ca         1 74S      -0.113000
     36 C16          5.5590     1.1210    -1.5030 ca         1 74S      -0.113000
     37 H1           1.8310    -0.8570     0.5560 hx         1 74S       0.105700
     38 H2           1.8310     0.9100     0.4640 hx         1 74S       0.105700
     39 H3           3.6370    -2.2070    -1.3270 ha         1 74S       0.127500
     40 H4           7.3340    -0.0740    -1.4400 ha         1 74S       0.151000
     41 H5           3.6360     2.0580    -1.5530 ha         1 74S       0.127500
     42 H6           2.6910    -2.3160     2.5670 h4         1 74S       0.175000
     43 H8           3.4050    -2.9390     9.8500 ha         1 74S       0.137000
     44 H9           3.7260    -1.4570     7.9090 ha         1 74S       0.132500
     45 H10          3.8790    -2.3890     5.6420 ha         1 74S       0.119500
     46 H11          3.1340    -7.9680     8.5460 ha         1 74S       0.137500
     47 H12          3.1140    -9.9970     7.1550 ha         1 74S       0.137000
     48 H13          3.3740    -9.8290     4.7110 ha         1 74S       0.132500
     49 H14          3.6540    -7.6380     3.6360 ha         1 74S       0.119500
     50 H15          4.4610    -3.7850     3.8220 h1         1 74S       0.073700
     51 H16          4.3890    -5.4360     3.1910 h1         1 74S       0.073700
     52 H17         -1.0520    -2.6940     1.7490 h1         1 74S       0.110700
     53 H18          1.3320    -2.2650    -0.0900 hc         1 74S       0.095950
     54 H19         -0.0310    -3.3620    -0.3600 hc         1 74S       0.095950
     55 H20          1.3310    -0.8380     2.1060 hc         1 74S       0.095950
     56 H21         -0.0330    -1.0370     3.2180 hc         1 74S       0.095950
     57 H22         -0.4760     0.9810     1.8490 hx         1 74S       0.123700
     58 H23         -2.6620     0.3220     1.1580 hc         1 74S       0.092200
     59 H24         -2.6610    -0.9300    -0.7670 hc         1 74S       0.092200
     60 H25         -2.2410    -2.3790     0.1750 hc         1 74S       0.092200
     61 H26         -0.4740    -1.2910    -1.6480 hx         1 74S       0.123700
     62 H27         -1.5450     1.3390    -0.4620 hx         1 74S       0.096033
     63 H28         -0.4690     0.9460    -1.8100 hx         1 74S       0.096033
     64 H29          0.0830     2.0280    -0.5240 hx         1 74S       0.096033
     65 H30          1.6180     0.7810    -1.9970 hc         1 74S       0.064700
     66 H31          1.6190    -0.9860    -1.9040 hc         1 74S       0.064700
     67 H32          6.1030    -2.2060    -1.3280 ha         1 74S       0.148500
     68 H33          6.1010     2.0580    -1.5530 ha         1 74S       0.148500
     69 H34         -2.2440    -1.1280     2.1000 hc         1 74S       0.092200
     70 H7           3.2330    -5.3740     9.5350 ha         1 74S       0.137500
@<TRIPOS>BOND
     1     1    31 1
     2     1    33 1
     3     2    34 ar
     4     2    35 ar
     5     3    35 ar
     6     3    36 ar
     7     4    34 ar
     8     4    36 ar
     9     5     6 2
    10     5    20 1
    11     5    21 1
    12     6    23 1
    13     7     9 ar
    14     7    13 ar
    15     7    14 1
    16     8    14 ar
    17     8    18 ar
    18     8    19 1
    19     9    10 ar
    20    10    11 ar
    21    11    12 ar
    22    12    13 ar
    23    13    19 1
    24    14    15 ar
    25    15    16 ar
    26    16    17 ar
    27    17    18 ar
    28    19    20 1
    29    21    22 2
    30    22    23 1
    31    23    24 1
    32    24    25 1
    33    24    26 1
    34    25    30 1
    35    26    27 1
    36    27    28 1
    37    27    31 1
    38    28    29 1
    39    29    30 1
    40    30    31 1
    41    31    32 1
    42    33    34 1
    43     1    37 1
    44     1    38 1
    45     2    39 1
    46     3    40 1
    47     4    41 1
    48     6    42 1
    49     9    70 1
    50    10    43 1
    51    11    44 1
    52    12    45 1
    53    15    46 1
    54    16    47 1
    55    17    48 1
    56    18    49 1
    57    20    50 1
    58    20    51 1
    59    24    52 1
    60    25    53 1
    61    25    54 1
    62    26    55 1
    63    26    56 1
    64    27    57 1
    65    28    58 1
    66    29    59 1
    67    29    60 1
    68    30    61 1
    69    32    62 1
    70    32    63 1
    71    32    64 1
    72    33    65 1
    73    33    66 1
    74    35    67 1
    75    36    68 1
    76    28    69 1
@<TRIPOS>SUBSTRUCTURE
     1 74S         1 TEMP              0 ****  ****    0 ROOT
