@<TRIPOS>MOLECULE
74S
   70    76     1     0     0
SMALL
bcc


@<TRIPOS>ATOM
      1 C10          1.4690     0.0000     0.0000 c3         1 74S      -0.044200
      2 C13          4.1780    -1.2700    -1.3770 ca         1 74S      -0.091000
      3 C15          6.2510    -0.0740    -1.4400 ca         1 74S      -0.067000
      4 C17          4.1770     1.1210    -1.5040 ca         1 74S      -0.091000
      5 C21          2.5270    -4.4040     3.1830 cc         1 74S       0.270600
      6 C22          2.1160    -3.2300     2.6490 cd         1 74S      -0.462600
      7 C26          3.4610    -5.2650     7.3990 cp         1 74S      -0.078000
      8 C28          3.5540    -6.5430     5.4830 ca         1 74S      -0.158200
      9 C32          3.3740    -4.7240     8.6800 ca         1 74S      -0.032500
     10 C31          3.4710    -3.3610     8.8550 ca         1 74S      -0.130500
     11 C30          3.6520    -2.5280     7.7620 ca         1 74S      -0.069000
     12 C29          3.7380    -3.0490     6.4890 ca         1 74S      -0.126000
     13 C25          3.6440    -4.4240     6.2920 ca         1 74S      -0.158200
     14 C27          3.4050    -6.6420     6.8730 cp         1 74S      -0.078000
     15 C33          3.2480    -7.8910     7.4720 ca         1 74S      -0.032500
     16 C34          3.2370    -9.0260     6.6920 ca         1 74S      -0.130500
     17 C35          3.3830    -8.9300     5.3160 ca         1 74S      -0.069000
     18 C36          3.5410    -7.7020     4.7120 ca         1 74S      -0.126000
     19 N24          3.6960    -5.2070     5.1530 na         1 74S       0.361700
     20 C23          3.8740    -4.6950     3.7910 c3         1 74S      -0.028000
     21 N20          1.5000    -5.2530     3.0700 nc         1 74S      -0.258000
     22 N19          0.5170    -4.6450     2.5040 nd         1 74S      -0.352800
     23 N18          0.8460    -3.4320     2.2290 na         1 74S       0.564400
     24 C07         -0.0130    -2.4360     1.5820 c3         1 74S      -0.065000
     25 C08          0.2730    -2.4190     0.0780 c3         1 74S      -0.073900
     26 C06          0.2710    -1.0540     2.1780 c3         1 74S      -0.073900
     27 C04         -0.5240     0.0000     1.3920 c3         1 74S       0.001000
     28 C03         -1.9760    -0.5110     1.2500 c3         1 74S      -0.040900
     29 C02         -1.9750    -1.3520    -0.0430 c3         1 74S      -0.040900
     30 C01         -0.5230    -1.2720    -0.5660 c3         1 74S       0.001000
     31 N05          0.0000     0.0000     0.0000 n4         1 74S       0.024200
     32 C72         -0.5170     1.1540    -0.7480 c3         1 74S       0.020100
     33 C11          1.9790    -0.0760    -1.4400 c3         1 74S       0.025900
     34 C12          3.4860    -0.0750    -1.4400 ca         1 74S      -0.141300
     35 C14          5.5610    -1.2700    -1.3770 ca         1 74S      -0.081000
     36 C16          5.5590     1.1210    -1.5030 ca         1 74S      -0.081000
     37 H1           1.8310    -0.8570     0.5560 hx         1 74S       0.092700
     38 H2           1.8310     0.9100     0.4640 hx         1 74S       0.092700
     39 H3           3.6370    -2.2070    -1.3270 ha         1 74S       0.101500
     40 H4           7.3340    -0.0740    -1.4400 ha         1 74S       0.119000
     41 H5           3.6360     2.0580    -1.5530 ha         1 74S       0.101500
     42 H6           2.6910    -2.3160     2.5670 h4         1 74S       0.159000
     43 H8           3.4050    -2.9390     9.8500 ha         1 74S       0.109000
     44 H9           3.7260    -1.4570     7.9090 ha         1 74S       0.101000
     45 H10          3.8790    -2.3890     5.6420 ha         1 74S       0.096000
     46 H11          3.1340    -7.9680     8.5460 ha         1 74S       0.106000
     47 H12          3.1140    -9.9970     7.1550 ha         1 74S       0.109000
     48 H13          3.3740    -9.8290     4.7110 ha         1 74S       0.101000
     49 H14          3.6540    -7.6380     3.6360 ha         1 74S       0.096000
     50 H15          4.4610    -3.7850     3.8220 h1         1 74S       0.039700
     51 H16          4.3890    -5.4360     3.1910 h1         1 74S       0.039700
     52 H17         -1.0520    -2.6940     1.7490 h1         1 74S       0.091700
     53 H18          1.3320    -2.2650    -0.0900 hc         1 74S       0.069450
     54 H19         -0.0310    -3.3620    -0.3600 hc         1 74S       0.069450
     55 H20          1.3310    -0.8380     2.1060 hc         1 74S       0.069450
     56 H21         -0.0330    -1.0370     3.2180 hc         1 74S       0.069450
     57 H22         -0.4760     0.9810     1.8490 hx         1 74S       0.098700
     58 H23         -2.6620     0.3220     1.1580 hc         1 74S       0.061950
     59 H24         -2.6610    -0.9300    -0.7670 hc         1 74S       0.061950
     60 H25         -2.2410    -2.3790     0.1750 hc         1 74S       0.061950
     61 H26         -0.4740    -1.2910    -1.6480 hx         1 74S       0.098700
     62 H27         -1.5450     1.3390    -0.4620 hx         1 74S       0.072700
     63 H28         -0.4690     0.9460    -1.8100 hx         1 74S       0.072700
     64 H29          0.0830     2.0280    -0.5240 hx         1 74S       0.072700
     65 H30          1.6180     0.7810    -1.9970 hc         1 74S       0.035700
     66 H31          1.6190    -0.9860    -1.9040 hc         1 74S       0.035700
     67 H32          6.1030    -2.2060    -1.3280 ha         1 74S       0.118000
     68 H33          6.1010     2.0580    -1.5530 ha         1 74S       0.118000
     69 H34         -2.2440    -1.1280     2.1000 hc         1 74S       0.061950
     70 H7           3.2330    -5.3740     9.5350 ha         1 74S       0.106000
@<TRIPOS>BOND
     1     1    31 1   
     2     1    33 1   
     3     1    37 1   
     4     1    38 1   
     5     2    34 ar  
     6     2    35 ar  
     7     2    39 1   
     8     3    35 ar  
     9     3    36 ar  
    10     3    40 1   
    11     4    34 ar  
    12     4    36 ar  
    13     4    41 1   
    14     5     6 2   
    15     5    20 1   
    16     5    21 1   
    17     6    23 1   
    18     6    42 1   
    19     7     9 ar  
    20     7    13 ar  
    21     7    14 1   
    22     8    14 ar  
    23     8    18 ar  
    24     8    19 1   
    25     9    10 ar  
    26     9    70 1   
    27    10    11 ar  
    28    10    43 1   
    29    11    12 ar  
    30    11    44 1   
    31    12    13 ar  
    32    12    45 1   
    33    13    19 1   
    34    14    15 ar  
    35    15    16 ar  
    36    15    46 1   
    37    16    17 ar  
    38    16    47 1   
    39    17    18 ar  
    40    17    48 1   
    41    18    49 1   
    42    19    20 1   
    43    20    50 1   
    44    20    51 1   
    45    21    22 2   
    46    22    23 1   
    47    23    24 1   
    48    24    25 1   
    49    24    26 1   
    50    24    52 1   
    51    25    30 1   
    52    25    53 1   
    53    25    54 1   
    54    26    27 1   
    55    26    55 1   
    56    26    56 1   
    57    27    28 1   
    58    27    31 1   
    59    27    57 1   
    60    28    29 1   
    61    28    58 1   
    62    28    69 1   
    63    29    30 1   
    64    29    59 1   
    65    29    60 1   
    66    30    31 1   
    67    30    61 1   
    68    31    32 1   
    69    32    62 1   
    70    32    63 1   
    71    32    64 1   
    72    33    34 1   
    73    33    65 1   
    74    33    66 1   
    75    35    67 1   
    76    36    68 1   
@<TRIPOS>SUBSTRUCTURE
     1 74S         1 TEMP              0 ****  ****    0 ROOT
