@<TRIPOS>MOLECULE
74W
   49    51     1     0     0
SMALL
bcc


@<TRIPOS>ATOM
      1 OAC          0.0000     0.0000     0.0000 o          1 74W      -0.688500
      2 CAZ          1.2160     0.0000     0.0000 c          1 74W       0.590500
      3 NAR          1.8790     0.0000     1.1720 ns         1 74W      -0.127500
      4 CAY          3.2270     0.0000     1.1890 c          1 74W       0.617700
      5 OAB          3.8280     0.0010     2.2480 o          1 74W      -0.651500
      6 CAU          3.9380    -0.0010    -0.0350 cc         1 74W      -0.266400
      7 CAA          5.4450    -0.0010    -0.0430 c3         1 74W       0.100100
      8 CAM          3.2480    -0.0020    -1.1960 cd         1 74W      -0.105400
      9 NBD          1.8800    -0.0070    -1.1700 n          1 74W       0.041000
     10 CBC          1.1310    -0.0130    -2.4290 c3         1 74W       0.244500
     11 OAS          0.1820     1.0770    -2.4560 os         1 74W      -0.394600
     12 CAO          0.2680    -1.2890    -2.5350 c3         1 74W      -0.108400
     13 CBA         -1.0320    -0.8090    -3.2190 c3         1 74W       0.175100
     14 OAD         -1.2180    -1.4790    -4.4670 oh         1 74W      -0.583800
     15 CBB         -0.8000     0.7010    -3.4450 c3         1 74W       0.152100
     16 CAN         -2.1000     1.4790    -3.2260 c3         1 74W       0.018000
     17 NAP         -1.8690     2.9010    -3.4870 ns         1 74W      -0.040900
     18 CAT         -2.8790     3.7830    -3.3560 cs         1 74W       0.254400
     19 SAE         -4.4330     3.2410    -2.8840 s          1 74W      -0.704400
     20 NAQ         -2.6660     5.0920    -3.5970 ns         1 74W       0.079900
     21 CAV         -3.7350     5.9950    -3.5480 ca         1 74W      -0.138400
     22 CAL         -4.6420     5.9420    -2.4980 ca         1 74W       0.002000
     23 CAJ         -3.8850     6.9490    -4.5450 ca         1 74W      -0.063000
     24 CAK         -4.9390     7.8400    -4.4940 ca         1 74W      -0.110000
     25 CAW         -5.8460     7.7810    -3.4500 ca         1 74W       0.020400
     26 Cl          -7.1700     8.9030    -3.3880 cl         1 74W       0.010600
     27 CAX         -5.6950     6.8350    -2.4520 ca         1 74W      -0.205300
     28 CBE         -6.6800     6.7790    -1.3120 c3         1 74W       0.649200
     29 FAF         -7.9620     6.5360    -1.8170 f          1 74W      -0.205633
     30 FAG         -6.3210     5.7480    -0.4360 f          1 74W      -0.205633
     31 FAH         -6.6710     7.9980    -0.6270 f          1 74W      -0.205633
     32 HAR          1.3690    -0.0000     2.0330 hn         1 74W       0.209500
     33 HAA1         5.8010    -0.0240    -1.0660 hc         1 74W       0.012033
     34 HAA2         5.8090    -0.8740     0.4860 hc         1 74W       0.012033
     35 HAA3         5.8090     0.8950     0.4460 hc         1 74W       0.012033
     36 HAM          3.7740    -0.0050    -2.1420 h4         1 74W       0.136000
     37 HBC          1.8040     0.0560    -3.2760 h2         1 74W       0.033700
     38 HAO1         0.7650    -2.0320    -3.1470 hc         1 74W       0.051700
     39 HAO2         0.0530    -1.6830    -1.5490 hc         1 74W       0.051700
     40 HBB         -0.4140     0.8760    -4.4420 h1         1 74W       0.031700
     41 HBA         -1.8820    -0.9670    -2.5660 h1         1 74W       0.035700
     42 HAD         -1.8780    -2.1460    -4.3700 ho         1 74W       0.402000
     43 HAN1        -2.8610     1.1060    -3.9000 h1         1 74W       0.069200
     44 HAN2        -2.4300     1.3490    -2.2020 h1         1 74W       0.069200
     45 HAP         -0.9670     3.2150    -3.7860 hn         1 74W       0.161500
     46 HAQ         -1.7390     5.4240    -3.7740 hn         1 74W       0.153500
     47 HAL         -4.5250     5.2010    -1.7160 ha         1 74W       0.180000
     48 HAJ         -3.1760     6.9940    -5.3630 ha         1 74W       0.106000
     49 HAK         -5.0570     8.5840    -5.2720 ha         1 74W       0.122000
@<TRIPOS>BOND
     1     1     2 2   
     2     2     3 1   
     3     2     9 1   
     4     3     4 1   
     5     3    32 1   
     6     4     5 2   
     7     4     6 1   
     8     6     7 1   
     9     6     8 2   
    10     7    33 1   
    11     7    34 1   
    12     7    35 1   
    13     8     9 1   
    14     8    36 1   
    15     9    10 1   
    16    10    11 1   
    17    10    12 1   
    18    10    37 1   
    19    11    15 1   
    20    12    13 1   
    21    12    38 1   
    22    12    39 1   
    23    13    14 1   
    24    13    15 1   
    25    13    41 1   
    26    14    42 1   
    27    15    16 1   
    28    15    40 1   
    29    16    17 1   
    30    16    43 1   
    31    16    44 1   
    32    17    18 1   
    33    17    45 1   
    34    18    19 2   
    35    18    20 1   
    36    20    21 1   
    37    20    46 1   
    38    21    22 ar  
    39    21    23 ar  
    40    22    27 ar  
    41    22    47 1   
    42    23    24 ar  
    43    23    48 1   
    44    24    25 ar  
    45    24    49 1   
    46    25    26 1   
    47    25    27 ar  
    48    27    28 1   
    49    28    29 1   
    50    28    30 1   
    51    28    31 1   
@<TRIPOS>SUBSTRUCTURE
     1 74W         1 TEMP              0 ****  ****    0 ROOT
