@<TRIPOS>MOLECULE
molecule
   49    51     1     0     0
SMALL
bcc


@<TRIPOS>ATOM
      1 OAC          0.0000     0.0000     0.0000 o          1 74X      -0.660500
      2 CAZ          1.2160     0.0000     0.0000 c          1 74X       0.813500
      3 NAR          1.8790     0.0000     1.1720 ns         1 74X      -0.557500
      4 CAY          3.2270     0.0010     1.1900 c          1 74X       0.707700
      5 OAB          3.8270     0.0010     2.2490 o          1 74X      -0.615500
      6 CAU          3.9380     0.0020    -0.0340 cc         1 74X      -0.278400
      7 CAA          5.4450     0.0030    -0.0420 c3         1 74X      -0.017900
      8 CAM          3.2480     0.0020    -1.1950 cd         1 74X       0.034600
      9 NBD          1.8800    -0.0030    -1.1700 n          1 74X      -0.381000
     10 CBC          1.1310    -0.0090    -2.4290 c3         1 74X       0.324500
     11 OAS          2.0410    -0.0470    -3.5350 os         1 74X      -0.422600
     12 CAO          0.2470    -1.2720    -2.5080 c3         1 74X      -0.146400
     13 CBA          0.3780    -1.6730    -4.0030 c3         1 74X       0.121100
     14 OAD          0.2060    -3.0810    -4.1750 oh         1 74X      -0.588800
     15 CBB          1.8400    -1.2500    -4.2940 c3         1 74X       0.109100
     16 CAN          2.0250    -0.9730    -5.7870 c3         1 74X       0.122000
     17 NAP          3.4230    -0.6240    -6.0490 ns         1 74X      -0.512900
     18 CAT          3.8230    -0.3380    -7.3040 cs         1 74X       0.599400
     19 SAE          2.6960    -0.3810    -8.5920 s          1 74X      -0.673400
     20 NAQ          5.1100    -0.0180    -7.5450 ns         1 74X      -0.424100
     21 CAV          5.5440     0.1930    -8.8600 ca         1 74X       0.028600
     22 CAL          4.7870     0.9720    -9.7260 ca         1 74X      -0.031000
     23 CAJ          6.7350    -0.3720    -9.2980 ca         1 74X      -0.105000
     24 CAK          7.1610    -0.1620   -10.5940 ca         1 74X      -0.128000
     25 CAW          6.4030     0.6100   -11.4570 ca         1 74X       0.073400
     26 ClA          6.9420     0.8720   -13.0860 cl         1 74X      -0.077400
     27 CAX          5.2190     1.1780   -11.0220 ca         1 74X      -0.176300
     28 CBE          4.3980     2.0230   -11.9620 c3         1 74X       0.681200
     29 FAG          3.2560     2.4820   -11.2990 f          1 74X      -0.216633
     30 FAH          5.1590     3.1150   -12.3920 f          1 74X      -0.216633
     31 FAF          4.0190     1.2540   -13.0670 f          1 74X      -0.216633
     32 HAR          1.3690    -0.0010     2.0330 hn         1 74X       0.366500
     33 HAA1         5.8010     0.4980    -0.9370 hc         1 74X       0.049367
     34 HAA2         5.8070    -1.0180    -0.0260 hc         1 74X       0.049367
     35 HAA3         5.8100     0.5290     0.8320 hc         1 74X       0.049367
     36 HAM          3.7750     0.0010    -2.1410 h4         1 74X       0.174000
     37 HBC          0.5100     0.8770    -2.4970 h2         1 74X       0.100700
     38 HAO1        -0.7810    -1.0370    -2.2620 hc         1 74X       0.089700
     39 HAO2         0.6360    -2.0530    -1.8660 hc         1 74X       0.089700
     40 HBB          2.5250    -2.0200    -3.9610 h1         1 74X       0.074700
     41 HBA         -0.3160    -1.1100    -4.6160 h1         1 74X       0.062700
     42 HAD         -0.6940    -3.2650    -4.3880 ho         1 74X       0.419000
     43 HAN1         1.7610    -1.8580    -6.3540 h1         1 74X       0.090200
     44 HAN2         1.3860    -0.1500    -6.0840 h1         1 74X       0.090200
     45 HAP          4.0860    -0.6180    -5.2990 hn         1 74X       0.314500
     46 HAQ          5.7490     0.0930    -6.7840 hn         1 74X       0.322500
     47 HAL          3.8600     1.4170    -9.3860 ha         1 74X       0.198000
     48 HAJ          7.3290    -0.9770    -8.6230 ha         1 74X       0.140000
     49 HAK          8.0900    -0.6020   -10.9360 ha         1 74X       0.154000
@<TRIPOS>BOND
     1     1     2 2
     2     2     3 1
     3     2     9 1
     4     3     4 1
     5     4     5 2
     6     4     6 1
     7     6     7 1
     8     6     8 2
     9     8     9 1
    10     9    10 1
    11    10    11 1
    12    10    12 1
    13    11    15 1
    14    12    13 1
    15    13    14 1
    16    13    15 1
    17    15    16 1
    18    16    17 1
    19    17    18 1
    20    18    19 2
    21    18    20 1
    22    20    21 1
    23    21    22 ar
    24    21    23 ar
    25    22    27 ar
    26    23    24 ar
    27    24    25 ar
    28    25    26 1
    29    25    27 ar
    30    27    28 1
    31    28    29 1
    32    28    30 1
    33    28    31 1
    34     3    32 1
    35     7    33 1
    36     7    34 1
    37     7    35 1
    38     8    36 1
    39    10    37 1
    40    12    38 1
    41    12    39 1
    42    15    40 1
    43    13    41 1
    44    14    42 1
    45    16    43 1
    46    16    44 1
    47    17    45 1
    48    20    46 1
    49    22    47 1
    50    23    48 1
    51    24    49 1
@<TRIPOS>SUBSTRUCTURE
     1 74X         1 TEMP              0 ****  ****    0 ROOT
