@<TRIPOS>MOLECULE
750
  101   106     1     0     0
SMALL
bcc


@<TRIPOS>ATOM
      1 C1          0.3660    0.5680    0.7280 c3        1 750      0.126400
      2 O2         -0.4930   -0.3280    0.0350 os        1 750     -0.402600
      3 C3         -0.8620   -1.4450    0.8330 c3        1 750      0.126400
      4 C4         -1.5250   -1.0050    2.1440 c3        1 750      0.133800
      5 N5         -0.7130   -0.0440    2.8820 n3        1 750     -0.741600
      6 C6         -0.2620    1.0570    2.0390 c3        1 750      0.133800
      7 C7         -1.3470    0.4050    4.1080 c3        1 750      0.170800
      8 C8         -1.0450   -0.5180    5.3000 c3        1 750      0.122400
      9 O9          0.2490   -0.1090    5.7800 os        1 750     -0.305900
     10 C10         0.8760   -0.9500    6.6620 ca        1 750      0.138100
     11 C11         2.2380   -0.6600    6.8680 ca        1 750     -0.073000
     12 C12         2.9330   -1.4510    7.7800 ca        1 750     -0.134800
     13 C13         2.2520   -2.5130    8.4610 ca        1 750      0.078100
     14 C14         0.9080   -2.8040    8.2590 ca        1 750     -0.103000
     15 C15         0.2260   -2.0030    7.3470 ca        1 750     -0.116000
     16 C16         4.2930   -1.4830    8.2460 cc        1 750      0.081800
     17 C17         4.3760   -2.5290    9.1640 cd        1 750     -0.176100
     18 O18         3.1250   -3.1850    9.3250 os        1 750     -0.228200
     19 C19         5.4960   -3.0230    9.8950 c         1 750      0.613300
     20 O20         6.6610   -2.6240    9.8760 o         1 750     -0.493100
     21 N21         5.2500   -4.2210   10.7920 n4        1 750     -0.660800
     22 C22         4.5440   -3.8660   12.0690 c3        1 750      0.043500
     23 C23         3.8850   -5.1040   12.6960 c3        1 750     -0.118400
     24 C24         2.5380   -5.4190   12.0570 c3        1 750     -0.072700
     25 C25         2.2080   -6.8860   12.2540 c3        1 750     -0.100600
     26 C26         1.4440   -4.5540   12.6490 c3        1 750     -0.100600
     27 C27         5.5270   -3.2590   13.1050 c         1 750      0.670100
     28 O28         6.7590   -3.4600   12.9920 o         1 750     -0.662100
     29 N29         4.9550   -2.4830   14.0780 n         1 750     -0.493900
     30 C30         5.5970   -2.2770   15.3700 c3        1 750     -0.008300
     31 C33         5.9260   -3.3780   17.7280 c3        1 750      0.001000
     32 N34         6.9390   -2.3990   17.9750 n         1 750     -0.468800
     33 C35         6.4970   -1.0320   18.1630 c3        1 750      0.075000
     34 C36         6.1190   -0.3040   16.8740 c3        1 750     -0.110400
     35 C37         5.0560   -1.0110   16.0630 c3        1 750     -0.081400
     36 C38         8.2950   -2.6530   17.7570 c         1 750      0.651100
     37 O39         9.1210   -1.7340   17.9010 o         1 750     -0.565100
     38 C40         8.7480   -4.0610   17.3900 c3        1 750     -0.114100
     39 C41         9.9810   -4.0020   16.5560 ca        1 750     -0.070300
     40 C42        11.2410   -3.9240   17.1660 ca        1 750     -0.034000
     41 C43        12.3910   -3.8240   16.3830 ca        1 750     -0.115000
     42 C44        12.2950   -3.7900   14.9940 ca        1 750     -0.065000
     43 C45        11.0360   -3.8720   14.3740 cp        1 750     -0.136000
     44 C46         9.8800   -3.9900   15.1640 ca        1 750     -0.096000
     45 C47        10.9560   -3.8000   12.9160 cp        1 750      0.124700
     46 C48        12.0110   -4.2760   12.0990 ca        1 750     -0.154000
     47 C49        11.9510   -4.1340   10.7170 ca        1 750     -0.003000
     48 C50        10.8270   -3.5250   10.1350 ca        1 750     -0.154000
     49 C51         9.7900   -3.0910   10.9560 ca        1 750     -0.035300
     50 N52         9.8570   -3.2300   12.3150 na        1 750     -0.097100
     51 C31         5.4320   -3.4930   16.2950 c         1 750      0.515100
     52 HC11        1.3520    0.0690    0.9240 h1        1 750      0.058200
     53 HC12        0.5010    1.4290    0.0220 h1        1 750      0.058200
     54 HC31       -1.5970   -2.0100    0.2010 h1        1 750      0.058200
     55 HC32        0.0410   -2.0780    1.0380 h1        1 750      0.058200
     56 HC41       -2.5460   -0.5860    1.9020 h1        1 750      0.042700
     57 HC42       -1.6680   -1.9100    2.7970 h1        1 750      0.042700
     58 HC61        0.5130    1.6360    2.6120 h1        1 750      0.042700
     59 HC62       -1.1100    1.7580    1.7880 h1        1 750      0.042700
     60 HC71       -0.9780    1.4370    4.3720 h1        1 750      0.061700
     61 HC72       -2.4730    0.4530    4.0170 h1        1 750      0.061700
     62 HC81       -1.7940   -0.3430    6.1160 h1        1 750      0.051700
     63 HC82       -1.0270   -1.5990    5.0090 h1        1 750      0.051700
     64 H11         2.7180    0.1630    6.3180 ha        1 750      0.183000
     65 H14         0.4060   -3.6250    8.7900 ha        1 750      0.169000
     66 H15        -0.8440   -2.1990    7.1640 ha        1 750      0.171000
     67 H16         5.1020   -0.8160    7.9360 ha        1 750      0.198000
     68 H21         6.1560   -4.6510   11.0300 hn        1 750      0.472300
     69 H22         3.7410   -3.1130   11.7900 hx        1 750      0.138700
     70 H231        3.7400   -4.9220   13.7980 hc        1 750      0.097200
     71 H232        4.5690   -5.9920   12.6180 hc        1 750      0.097200
     72 H24         2.5900   -5.2110   10.9490 hc        1 750      0.036700
     73 H251        1.2040   -7.1120   11.8200 hc        1 750      0.052200
     74 H252        2.1860   -7.1400   13.3420 hc        1 750      0.052200
     75 H253        2.9650   -7.5340   11.7510 hc        1 750      0.052200
     76 H261        1.3110   -4.7750   13.7360 hc        1 750      0.052200
     77 H262        0.4740   -4.7580   12.1320 hc        1 750      0.052200
     78 H263        1.6850   -3.4700   12.5310 hc        1 750      0.052200
     79 H29         9.0800   -2.9250   12.8840 hn        1 750      0.349700
     80 H30         6.7070   -2.1550   15.1750 h1        1 750      0.103700
     81 H331        6.2760   -4.3990   18.0640 h1        1 750      0.103700
     82 H332        5.0130   -3.1280   18.3520 h1        1 750      0.103700
     83 H351        7.3290   -0.4570   18.6670 h1        1 750      0.086700
     84 H352        5.6100   -1.0430   18.8590 h1        1 750      0.086700
     85 H361        7.0350   -0.1380   16.2490 hc        1 750      0.072200
     86 H362        5.7280    0.7090   17.1680 hc        1 750      0.072200
     87 H371        4.6700   -0.2880   15.2930 hc        1 750      0.067200
     88 H372        4.1910   -1.2890   16.7220 hc        1 750      0.067200
     89 H401        7.9510   -4.6230   16.8350 hc        1 750      0.086700
     90 H402        8.9490   -4.6080   18.3530 hc        1 750      0.086700
     91 H42        11.3200   -3.9220   18.2660 ha        1 750      0.172000
     92 H43        13.3810   -3.7590   16.8650 ha        1 750      0.173000
     93 H44        13.2110   -3.6740   14.3920 ha        1 750      0.151000
     94 H46         8.8850   -4.0870   14.7010 ha        1 750      0.132000
     95 H48        12.8750   -4.7670   12.5800 ha        1 750      0.200000
     96 H49        12.7800   -4.4970   10.0800 ha        1 750      0.194000
     97 H50        10.7570   -3.3840    9.0430 ha        1 750      0.196000
     98 H51         8.8720   -2.6120   10.5520 h4        1 750      0.210000
     99 O32         4.9000   -4.5350   15.9000 o         1 750     -0.536100
    100 H212        4.6630   -4.8990   10.2850 hn        1 750      0.472300
    101 H292        3.9570   -2.4390   14.1010 hn        1 750      0.325500
@<TRIPOS>BOND
     1    1    2 1
     2    1    6 1
     3    1   52 1
     4    1   53 1
     5    2    3 1
     6    3    4 1
     7    3   54 1
     8    3   55 1
     9    4    5 1
    10    4   56 1
    11    4   57 1
    12    5    6 1
    13    5    7 1
    14    6   58 1
    15    6   59 1
    16    7    8 1
    17    7   60 1
    18    7   61 1
    19    8    9 1
    20    8   62 1
    21    8   63 1
    22    9   10 1
    23   10   11 ar
    24   10   15 ar
    25   11   12 ar
    26   11   64 1
    27   12   13 ar
    28   12   16 1
    29   13   14 ar
    30   13   18 1
    31   14   15 ar
    32   14   65 1
    33   15   66 1
    34   16   17 2
    35   16   67 1
    36   17   18 1
    37   17   19 1
    38   19   20 2
    39   19   21 1
    40   21   22 1
    41   21   68 1
    42   21  100 1
    43   22   23 1
    44   22   27 1
    45   22   69 1
    46   23   24 1
    47   23   70 1
    48   23   71 1
    49   24   25 1
    50   24   26 1
    51   24   72 1
    52   25   73 1
    53   25   74 1
    54   25   75 1
    55   26   76 1
    56   26   77 1
    57   26   78 1
    58   27   28 2
    59   27   29 1
    60   29   30 1
    61   29  101 1
    62   30   35 1
    63   30   51 1
    64   30   80 1
    65   31   32 1
    66   31   51 1
    67   31   81 1
    68   31   82 1
    69   32   33 1
    70   32   36 1
    71   33   34 1
    72   33   83 1
    73   33   84 1
    74   34   35 1
    75   34   85 1
    76   34   86 1
    77   35   87 1
    78   35   88 1
    79   36   37 2
    80   36   38 1
    81   38   39 1
    82   38   89 1
    83   38   90 1
    84   39   40 ar
    85   39   44 ar
    86   40   41 ar
    87   40   91 1
    88   41   42 ar
    89   41   92 1
    90   42   43 ar
    91   42   93 1
    92   43   44 ar
    93   43   45 1
    94   44   94 1
    95   45   46 ar
    96   45   50 2
    97   46   47 ar
    98   46   95 1
    99   47   48 ar
   100   47   96 1
   101   48   49 ar
   102   48   97 1
   103   49   50 1
   104   49   98 1
   105   50   79 1
   106   51   99 2
@<TRIPOS>SUBSTRUCTURE
     1 750         1 TEMP              0 ****  ****    0 ROOT
