@<TRIPOS>MOLECULE
751
   65    69     1     0     0
SMALL
bcc


@<TRIPOS>ATOM
      1 C28          0.0000     0.0000     0.0000 c3         1 751       0.244700
      2 O4           1.4290     0.0000     0.0000 os         1 751      -0.306900
      3 C25          2.0460     0.0000     1.2100 ca         1 751       0.156100
      4 C26          3.4330    -0.0000     1.2810 ca         1 751      -0.173000
      5 C27          4.0620     0.0000     2.5070 ca         1 751      -0.054000
      6 C24          1.2880     0.0060     2.3740 ca         1 751      -0.173000
      7 C23          1.9130     0.0060     3.6030 ca         1 751      -0.054000
      8 C22          3.3040     0.0000     3.6780 cp         1 751      -0.083000
      9 C18          3.9780    -0.0000     5.0000 cp         1 751      -0.045000
     10 C17          3.2220     0.0000     6.1700 ca         1 751      -0.004000
     11 C19          5.3700    -0.0070     5.0750 ca         1 751      -0.054000
     12 C20          5.9910    -0.0070     6.3080 ca         1 751      -0.125000
     13 C21          5.2360    -0.0000     7.4660 ca         1 751      -0.002000
     14 C16          3.8540     0.0000     7.3970 ca         1 751      -0.153500
     15 S1           2.8990     0.0010     8.8780 sy         1 751       1.054200
     16 O1           3.7330     0.5450     9.8920 o          1 751      -0.588300
     17 O2           1.6320     0.5470     8.5380 o          1 751      -0.588300
     18 N1           2.6330    -1.5800     9.2900 n3         1 751      -0.535500
     19 C4           3.5720    -2.3020    10.1620 c3         1 751       0.233800
     20 C3           2.7780    -2.9510    11.3000 c3         1 751       0.132800
     21 C1           1.4470    -2.2980     8.7990 c3         1 751       0.233800
     22 C2           0.7420    -2.9470     9.9950 c3         1 751       0.132800
     23 N2           1.7000    -3.7720    10.7350 nh         1 751      -0.503300
     24 C5           1.0600    -4.5050    11.7260 ca         1 751       0.364900
     25 N3           0.3300    -3.8880    12.6440 nb         1 751      -0.571000
     26 C6          -0.2780    -4.5890    13.5870 ca         1 751       0.284900
     27 C7          -0.1560    -5.9650    13.6210 ca         1 751       0.287900
     28 N4           0.5680    -6.5930    12.7130 nb         1 751      -0.543000
     29 C8           1.1800    -5.9030    11.7580 cp         1 751       0.366500
     30 C9           1.9890    -6.6050    10.7340 cp         1 751      -0.195500
     31 C10          2.8370    -7.6480    11.1070 ca         1 751      -0.023500
     32 C11          3.5880    -8.2990    10.1530 ca         1 751      -0.188500
     33 C12          3.5030    -7.9170     8.8200 ca         1 751       0.162100
     34 O3           4.2450    -8.5600     7.8810 os         1 751      -0.307900
     35 C15          4.1080    -8.1150     6.5300 c3         1 751       0.244700
     36 C13          2.6600    -6.8790     8.4450 ca         1 751      -0.188500
     37 C14          1.9010    -6.2280     9.3940 ca         1 751      -0.023500
     38 H281        -0.3610    -0.0040    -1.0210 h1         1 751      -0.001633
     39 H282        -0.3610    -0.8830     0.5140 h1         1 751      -0.001633
     40 H283        -0.3610     0.8860     0.5070 h1         1 751      -0.001633
     41 H26          4.0210    -0.0000     0.3710 ha         1 751       0.120000
     42 H24          0.2060     0.0110     2.3160 ha         1 751       0.120000
     43 H27          5.1440    -0.0020     2.5610 ha         1 751       0.111500
     44 H23          1.3220     0.0090     4.5110 ha         1 751       0.111500
     45 H17          2.1400     0.0000     6.1170 ha         1 751       0.129000
     46 H19          5.9620    -0.0120     4.1680 ha         1 751       0.112000
     47 H20          7.0730    -0.0100     6.3680 ha         1 751       0.109000
     48 H21          5.7280     0.0000     8.4310 ha         1 751       0.121000
     49 H41C         4.2940    -1.6070    10.5730 h1         1 751       0.027950
     50 H42C         4.0810    -3.0700     9.5910 h1         1 751       0.027950
     51 H11C         0.7740    -1.6010     8.3160 h1         1 751       0.027950
     52 H12C         1.7520    -3.0650     8.0970 h1         1 751       0.027950
     53 H31C         2.3510    -2.1780    11.9280 h1         1 751       0.026450
     54 H32C         3.4380    -3.5780    11.8880 h1         1 751       0.026450
     55 H21C        -0.0700    -3.5700     9.6390 h1         1 751       0.026450
     56 H22C         0.3530    -2.1740    10.6470 h1         1 751       0.026450
     57 H6          -0.8740    -4.0810    14.3360 h4         1 751      -0.009900
     58 H7          -0.6560    -6.5310    14.3980 h4         1 751      -0.009900
     59 H10          2.9050    -7.9470    12.1470 ha         1 751       0.114000
     60 H14          1.2430    -5.4190     9.1010 ha         1 751       0.114000
     61 H11          4.2470    -9.1080    10.4420 ha         1 751       0.119000
     62 H13          2.5940    -6.5850     7.4040 ha         1 751       0.119000
     63 H151         3.0780    -8.2300     6.2150 h1         1 751      -0.002633
     64 H152         4.3920    -7.0720     6.4620 h1         1 751      -0.002633
     65 H153         4.7500    -8.7060     5.8880 h1         1 751      -0.002633
@<TRIPOS>BOND
     1     1     2 1   
     2     1    38 1   
     3     1    39 1   
     4     1    40 1   
     5     2     3 1   
     6     3     4 ar  
     7     3     6 ar  
     8     4     5 ar  
     9     4    41 1   
    10     5     8 ar  
    11     5    43 1   
    12     6     7 ar  
    13     6    42 1   
    14     7     8 ar  
    15     7    44 1   
    16     8     9 1   
    17     9    10 ar  
    18     9    11 ar  
    19    10    14 ar  
    20    10    45 1   
    21    11    12 ar  
    22    11    46 1   
    23    12    13 ar  
    24    12    47 1   
    25    13    14 ar  
    26    13    48 1   
    27    14    15 1   
    28    15    16 2   
    29    15    17 2   
    30    15    18 1   
    31    18    19 1   
    32    18    21 1   
    33    19    20 1   
    34    19    49 1   
    35    19    50 1   
    36    20    23 1   
    37    20    53 1   
    38    20    54 1   
    39    21    22 1   
    40    21    51 1   
    41    21    52 1   
    42    22    23 1   
    43    22    55 1   
    44    22    56 1   
    45    23    24 1   
    46    24    25 ar  
    47    24    29 ar  
    48    25    26 ar  
    49    26    27 ar  
    50    26    57 1   
    51    27    28 ar  
    52    27    58 1   
    53    28    29 ar  
    54    29    30 1   
    55    30    31 ar  
    56    30    37 ar  
    57    31    32 ar  
    58    31    59 1   
    59    32    33 ar  
    60    32    61 1   
    61    33    34 1   
    62    33    36 ar  
    63    34    35 1   
    64    35    63 1   
    65    35    64 1   
    66    35    65 1   
    67    36    37 ar  
    68    36    62 1   
    69    37    60 1   
@<TRIPOS>SUBSTRUCTURE
     1 751         1 TEMP              0 ****  ****    0 ROOT
