@<TRIPOS>MOLECULE
molecule
   40    43     1     0     0
SMALL
bcc


@<TRIPOS>ATOM
      1 C10          0.0000     0.0000     0.0000 ca         1 752      -0.138000
      2 C17          4.5250     0.0810    -7.0460 c          1 752       0.660100
      3 C20          5.9300     0.0590    -8.9510 cc         1 752       0.504800
      4 C24          6.6720     0.1100   -11.3360 ca         1 752      -0.058100
      5 C26          4.4410     0.3270   -12.2300 ca         1 752      -0.079000
      6 C28          6.3260     0.2480   -13.7090 ca         1 752      -0.134000
      7 N01          1.5980     0.1040    -2.5370 na         1 752      -0.430700
      8 C02          2.6570     0.0590    -3.3960 cc         1 752       0.407800
      9 N03          3.7460    -0.0630    -2.6670 nd         1 752      -0.373000
     10 N04          3.4400    -0.0980    -1.4190 nd         1 752      -0.242000
     11 C05          2.1380     0.0000    -1.2740 cc         1 752       0.449000
     12 C06          1.3950     0.0000     0.0000 ca         1 752      -0.125500
     13 C07          1.3710     0.0000     2.4240 ca         1 752      -0.110000
     14 C08         -0.0080     0.0000     2.4000 ca         1 752      -0.137000
     15 C09         -0.6900     0.0010     1.1940 ca         1 752      -0.164000
     16 C11          2.0890     0.0000     1.2270 ca         1 752      -0.030600
     17 C12          3.5630    -0.0000     1.2450 c          1 752       0.879200
     18 O13          4.1780     0.8830     0.6800 o          1 752      -0.814300
     19 O14          4.2290    -0.9790     1.8890 o          1 752      -0.814300
     20 C16          4.3430     0.0250    -5.5500 c3         1 752      -0.084300
     21 N18          5.7620     0.0070    -7.5760 ns         1 752      -0.457400
     22 O19          3.5600     0.1940    -7.7710 o          1 752      -0.519100
     23 S21          7.4800    -0.0270    -9.7770 ss         1 752      -0.171100
     24 N22          4.9730     0.1710    -9.8050 nd         1 752      -0.586100
     25 C23          5.2950     0.2060   -11.1130 ca         1 752       0.155400
     26 C25          7.1780     0.1300   -12.6340 ca         1 752      -0.083000
     27 C27          4.9580     0.3470   -13.5000 ca         1 752      -0.127000
     28 H101        -0.5420     0.0000    -0.9380 ha         1 752       0.098000
     29 H261         3.3710     0.4050   -12.0840 ha         1 752       0.151000
     30 H281         6.7230     0.2650   -14.7160 ha         1 752       0.130000
     31 H1           0.6300     0.1940    -2.7750 hn         1 752       0.300700
     32 H071         1.8970    -0.0000     3.3710 ha         1 752       0.146000
     33 H081        -0.5620     0.0000     3.3310 ha         1 752       0.108000
     34 H091        -1.7730     0.0010     1.1890 ha         1 752       0.106000
     35 H161         4.7330    -0.9120    -5.1740 h1         1 752       0.102700
     36 H162         4.8750     0.8490    -5.0900 h1         1 752       0.102700
     37 H181         6.5610    -0.0500    -6.9760 hn         1 752       0.344500
     38 H251         8.2460     0.0520   -12.7980 ha         1 752       0.132000
     39 H271         4.2910     0.4400   -14.3490 ha         1 752       0.132000
     40 S15          2.5800     0.1480    -5.1530 ss         1 752      -0.233400
@<TRIPOS>BOND
     1     1    12 ar  
     2     1    15 ar  
     3     2    20 1   
     4     2    21 1   
     5     2    22 2   
     6     3    21 1   
     7     3    23 1   
     8     3    24 2   
     9     4    23 1   
    10     4    25 ar  
    11     4    26 ar  
    12     5    25 ar  
    13     5    27 ar  
    14     6    26 ar  
    15     6    27 ar  
    16     7     8 1   
    17     7    11 1   
    18     8     9 2   
    19     8    40 1   
    20     9    10 1   
    21    10    11 2   
    22    11    12 1   
    23    12    16 ar  
    24    13    14 ar  
    25    13    16 ar  
    26    14    15 ar  
    27    16    17 1   
    28    17    18 1   
    29    17    19 1   
    30    40    20 1   
    31    24    25 1   
    32     1    28 1   
    33     5    29 1   
    34     6    30 1   
    35     7    31 1   
    36    13    32 1   
    37    14    33 1   
    38    15    34 1   
    39    20    35 1   
    40    20    36 1   
    41    21    37 1   
    42    26    38 1   
    43    27    39 1   
@<TRIPOS>SUBSTRUCTURE
     1 752         1 TEMP              0 ****  ****    0 ROOT
