@<TRIPOS>MOLECULE
molecule
   39    41     1     0     0
SMALL
bcc


@<TRIPOS>ATOM
      1 C1           0.0000     0.0000     0.0000 cc         1 753      -0.087400
      2 C2           1.3400     0.0000     0.0000 cd         1 753      -0.040600
      3 C3           2.1740     0.0010    -1.2050 c          1 753       0.906800
      4 C4           0.3310     0.0040     2.3090 ca         1 753       0.487600
      5 C5          -0.6020     0.0050     1.2620 ca         1 753      -0.352400
      6 C6          -1.9810     0.0090     1.6180 ca         1 753       0.753200
      7 C7          -4.3670     0.1380     1.0170 c3         1 753       0.232100
      8 C8          -1.3900     0.0100     3.8470 ca         1 753       0.696300
      9 O1           3.5180     0.0010    -1.0960 o          1 753      -0.819800
     10 N1          -2.3110     0.0120     2.9010 nb         1 753      -0.843000
     11 N2          -0.1060     0.0090     3.5730 nb         1 753      -0.755000
     12 N           -2.9570     0.0110     0.6420 nu         1 753      -0.919900
     13 C           -0.8040     0.0000    -1.2740 c3         1 753      -0.074900
     14 O            1.6540     0.0010    -2.3050 o          1 753      -0.819800
     15 S            1.9590     0.0000     1.6430 ss         1 753      -0.100900
     16 C9          -1.8280     0.0160     5.2890 c3         1 753      -0.093700
     17 C10         -1.9760     1.4600     5.7710 c3         1 753      -0.036100
     18 C11         -2.4130     1.4660     7.2130 ca         1 753      -0.073300
     19 C16         -3.7600     1.4620     7.5270 ca         1 753      -0.124500
     20 C15         -4.1600     1.4620     8.8500 ca         1 753      -0.131500
     21 C14         -3.2160     1.4660     9.8580 ca         1 753      -0.141000
     22 C13         -1.8690     1.4690     9.5450 ca         1 753      -0.131500
     23 C12         -1.4680     1.4700     8.2210 ca         1 753      -0.124500
     24 H1          -4.9800     0.1360     0.1240 h1         1 753       0.030367
     25 H2          -4.5150     1.0670     1.5550 h1         1 753       0.030367
     26 H3          -4.6480    -0.6950     1.6500 h1         1 753       0.030367
     27 H5          -2.7040    -0.1170    -0.3180 hn         1 753       0.466800
     28 H6          -1.3660    -0.9230    -1.3470 hc         1 753       0.054367
     29 H7          -0.1360     0.0840    -2.1230 hc         1 753       0.054367
     30 H8          -1.4890     0.8400    -1.2690 hc         1 753       0.054367
     31 H9          -2.7790    -0.4950     5.3790 hc         1 753       0.059200
     32 H10         -1.0870    -0.4930     5.8930 hc         1 753       0.059200
     33 H11         -2.7180     1.9690     5.1670 hc         1 753       0.059200
     34 H12         -1.0250     1.9710     5.6800 hc         1 753       0.059200
     35 H13         -4.5000     1.4590     6.7360 ha         1 753       0.135000
     36 H14         -5.2150     1.4590     9.0960 ha         1 753       0.122000
     37 H15         -3.5300     1.4660    10.8950 ha         1 753       0.119000
     38 H16         -1.1290     1.4730    10.3350 ha         1 753       0.122000
     39 H17         -0.4140     1.4730     7.9750 ha         1 753       0.135000
@<TRIPOS>BOND
     1    20    21 ar  
     2    20    19 ar  
     3    21    22 ar  
     4    19    18 ar  
     5    22    23 ar  
     6    18    23 ar  
     7    18    17 1   
     8    17    16 1   
     9    16     8 1   
    10     7    12 1   
    11    10     8 ar  
    12    10     6 ar  
    13     8    11 ar  
    14    12     6 1   
    15     6     5 ar  
    16    11     4 ar  
    17     4     5 ar  
    18     4    15 1   
    19     5     1 1   
    20     1    13 1   
    21     1     2 2   
    22    15     2 1   
    23     2     3 1   
    24     3    14 1   
    25     3     9 1   
    26     7    24 1   
    27     7    25 1   
    28     7    26 1   
    29    12    27 1   
    30    13    28 1   
    31    13    29 1   
    32    13    30 1   
    33    16    31 1   
    34    16    32 1   
    35    17    33 1   
    36    17    34 1   
    37    19    35 1   
    38    20    36 1   
    39    21    37 1   
    40    22    38 1   
    41    23    39 1   
@<TRIPOS>SUBSTRUCTURE
     1 753         1 TEMP              0 ****  ****    0 ROOT
