@<TRIPOS>MOLECULE
753
   39    41     1     0     0
SMALL
bcc


@<TRIPOS>ATOM
      1 C1           0.0000     0.0000     0.0000 cc         1 753      -0.086400
      2 C2           1.3400     0.0000     0.0000 cd         1 753       0.025400
      3 C3           2.1740     0.0010    -1.2050 c          1 753       1.003800
      4 C4           0.3310     0.0040     2.3090 ca         1 753       0.497600
      5 C5          -0.6020     0.0050     1.2620 ca         1 753      -0.347400
      6 C6          -1.9810     0.0090     1.6180 ca         1 753       0.576200
      7 C7          -4.3670     0.1380     1.0170 c3         1 753       0.204100
      8 C8          -1.3900     0.0100     3.8470 ca         1 753       0.606300
      9 O1           3.5180     0.0010    -1.0960 o          1 753      -0.860300
     10 N1          -2.3110     0.0120     2.9010 nb         1 753      -0.733000
     11 N2          -0.1060     0.0090     3.5730 nb         1 753      -0.630000
     12 N           -2.9570     0.0110     0.6420 nu         1 753      -0.536900
     13 C           -0.8040     0.0000    -1.2740 c3         1 753      -0.014900
     14 O            1.6540     0.0010    -2.3050 o          1 753      -0.860300
     15 S            1.9590     0.0000     1.6430 ss         1 753      -0.256900
     16 C9          -1.8280     0.0160     5.2890 c3         1 753      -0.053700
     17 C10         -1.9760     1.4600     5.7710 c3         1 753       0.028900
     18 C11         -2.4130     1.4660     7.2130 ca         1 753      -0.076300
     19 C16         -3.7600     1.4620     7.5270 ca         1 753      -0.098000
     20 C15         -4.1600     1.4620     8.8500 ca         1 753      -0.106000
     21 C14         -3.2160     1.4660     9.8580 ca         1 753      -0.117000
     22 C13         -1.8690     1.4690     9.5450 ca         1 753      -0.106000
     23 C12         -1.4680     1.4700     8.2210 ca         1 753      -0.098000
     24 H1          -4.9800     0.1360     0.1240 h1         1 753       0.000367
     25 H2          -4.5150     1.0670     1.5550 h1         1 753       0.000367
     26 H3          -4.6480    -0.6950     1.6500 h1         1 753       0.000367
     27 H5          -2.7040    -0.1170    -0.3180 hn         1 753       0.331800
     28 H6          -1.3660    -0.9230    -1.3470 hc         1 753       0.032033
     29 H7          -0.1360     0.0840    -2.1230 hc         1 753       0.032033
     30 H8          -1.4890     0.8400    -1.2690 hc         1 753       0.032033
     31 H9          -2.7790    -0.4950     5.3790 hc         1 753       0.024200
     32 H10         -1.0870    -0.4930     5.8930 hc         1 753       0.024200
     33 H11         -2.7180     1.9690     5.1670 hc         1 753       0.026200
     34 H12         -1.0250     1.9710     5.6800 hc         1 753       0.026200
     35 H13         -4.5000     1.4590     6.7360 ha         1 753       0.110000
     36 H14         -5.2150     1.4590     9.0960 ha         1 753       0.096000
     37 H15         -3.5300     1.4660    10.8950 ha         1 753       0.095000
     38 H16         -1.1290     1.4730    10.3350 ha         1 753       0.096000
     39 H17         -0.4140     1.4730     7.9750 ha         1 753       0.110000
@<TRIPOS>BOND
     1     1     2 2   
     2     1     5 1   
     3     1    13 1   
     4     2     3 1   
     5     2    15 1   
     6     3     9 1   
     7     3    14 1   
     8     4     5 ar  
     9     4    11 ar  
    10     4    15 1   
    11     5     6 ar  
    12     6    10 ar  
    13     6    12 1   
    14     7    12 1   
    15     7    24 1   
    16     7    25 1   
    17     7    26 1   
    18     8    10 ar  
    19     8    11 ar  
    20     8    16 1   
    21    12    27 1   
    22    13    28 1   
    23    13    29 1   
    24    13    30 1   
    25    16    17 1   
    26    16    31 1   
    27    16    32 1   
    28    17    18 1   
    29    17    33 1   
    30    17    34 1   
    31    18    19 ar  
    32    18    23 ar  
    33    19    20 ar  
    34    19    35 1   
    35    20    21 ar  
    36    20    36 1   
    37    21    22 ar  
    38    21    37 1   
    39    22    23 ar  
    40    22    38 1   
    41    23    39 1   
@<TRIPOS>SUBSTRUCTURE
     1 753         1 TEMP              0 ****  ****    0 ROOT
