@<TRIPOS>MOLECULE
molecule
   64    65     1     0     0
SMALL
bcc


@<TRIPOS>ATOM
      1 C1           0.0000     0.0000     0.0000 ca         1 754      -0.105300
      2 O1           2.0930     0.0060     3.5780 os         1 754      -0.303900
      3 C2           1.3810     0.0000     0.0000 ca         1 754      -0.032300
      4 O2           1.7890    -6.8180     3.7670 o          1 754      -0.829300
      5 C3          -0.6920     0.0120     1.2000 ca         1 754      -0.096000
      6 O3           0.8160    -8.0380     5.3520 o          1 754      -0.829300
      7 C4          -0.8100    -0.0190    -1.2700 c3         1 754      -0.011700
      8 C5           2.0760     0.0000     1.2020 ca         1 754      -0.225000
      9 C6           2.1890     0.0060    -1.2730 c3         1 754      -0.018700
     10 C7           1.4030     0.0070     2.4080 ca         1 754       0.158100
     11 C8          -0.0020     0.0150     2.4150 ca         1 754      -0.115800
     12 C9           0.0460     0.4050    -2.4610 c3         1 754      -0.071400
     13 C10          1.3300    -0.4340    -2.4560 c3         1 754      -0.070400
     14 C11         -0.7380     0.0280     3.6860 ce         1 754      -0.031400
     15 C12          4.1180    -0.0020     4.8970 c3         1 754      -0.083400
     16 C13         -1.9910     0.9440    -1.1300 c3         1 754      -0.081600
     17 C14         -1.3400    -1.4340    -1.5080 c3         1 754      -0.081600
     18 C15          3.3720    -0.9530    -1.1240 c3         1 754      -0.080100
     19 C16          2.7150     1.4200    -1.5290 c3         1 754      -0.080100
     20 C17         -0.8210    -1.1010     4.4310 cf         1 754      -0.446000
     21 C18         -1.4010     1.2960     4.1600 c3         1 754      -0.023900
     22 C19         -0.2020    -2.2850     3.9890 cf         1 754      -0.245000
     23 C20         -0.2860    -3.4190     4.7380 ce         1 754       0.019000
     24 C21          0.3310    -4.6010     4.2970 ce         1 754      -0.177200
     25 C22          0.2470    -5.7360     5.0470 cf         1 754      -0.082200
     26 C23          1.0860    -4.6140     2.9930 c3         1 754      -0.031900
     27 C24          0.9900    -6.8780     4.6830 c          1 754       0.848800
     28 C25          3.5200    -0.0030     3.4890 c3         1 754       0.137400
     29 C26          5.6450    -0.0110     4.8030 c3         1 754      -0.091100
     30 H3          -1.7750     0.0170     1.1970 ha         1 754       0.134000
     31 H5           3.1600    -0.0030     1.1940 ha         1 754       0.134000
     32 H9           0.2980     1.4550    -2.3720 hc         1 754       0.040200
     33 H9A         -0.4980     0.2310    -3.3810 hc         1 754       0.040200
     34 H10          1.8750    -0.2500    -3.3750 hc         1 754       0.046700
     35 H10A         1.0690    -1.4780    -2.3340 hc         1 754       0.046700
     36 H12          3.7840    -0.8830     5.4320 hc         1 754       0.059700
     37 H12A         3.7940     0.8860     5.4270 hc         1 754       0.059700
     38 H13         -1.6430     1.8840    -0.7190 hc         1 754       0.035033
     39 H13A        -2.4330     1.1170    -2.1030 hc         1 754       0.035033
     40 H13B        -2.7320     0.5120    -0.4680 hc         1 754       0.035033
     41 H14         -0.5960    -2.1560    -1.1940 hc         1 754       0.035033
     42 H14A        -2.2490    -1.5810    -0.9370 hc         1 754       0.035033
     43 H14B        -1.5510    -1.5680    -2.5620 hc         1 754       0.035033
     44 H15          4.1130    -0.5120    -0.4690 hc         1 754       0.035200
     45 H15A         3.8120    -1.1360    -2.0960 hc         1 754       0.035200
     46 H15B         3.0270    -1.8890    -0.7010 hc         1 754       0.035200
     47 H16          1.9970     2.1450    -1.1640 hc         1 754       0.035200
     48 H16A         3.6580     1.5540    -1.0110 hc         1 754       0.035200
     49 H16B         2.8640     1.5630    -2.5920 hc         1 754       0.035200
     50 H17         -1.2240    -1.7510     3.6640 ha         1 754       0.346000
     51 H18         -0.9660     2.1450     3.6460 hc         1 754       0.034700
     52 H18A        -1.2500     1.4040     5.2270 hc         1 754       0.034700
     53 H18B        -2.4620     1.2490     3.9480 hc         1 754       0.034700
     54 H19          0.3400    -2.2950     3.0510 ha         1 754       0.114000
     55 H20         -0.8290    -3.4100     5.6760 ha         1 754       0.136000
     56 H22         -0.2970    -5.7240     5.9840 ha         1 754       0.111000
     57 H23          2.1420    -4.4660     3.1860 hc         1 754       0.042700
     58 H23A         0.7200    -3.8180     2.3560 hc         1 754       0.042700
     59 H23B         0.9400    -5.5680     2.5000 hc         1 754       0.042700
     60 H25          3.8430    -0.8900     2.9590 h1         1 754       0.030700
     61 H25A         3.8530     0.8790     2.9550 h1         1 754       0.030700
     62 H26          5.9690    -0.8990     4.2730 hc         1 754       0.033033
     63 H26A         5.9790     0.8700     4.2690 hc         1 754       0.033033
     64 H26B         6.0680    -0.0110     5.8000 hc         1 754       0.033033
@<TRIPOS>BOND
     1     1     3 ar
     2     1     5 ar
     3     1     7 1
     4     2    10 1
     5     2    28 1
     6     3     8 ar
     7     3     9 1
     8     4    27 1
     9     5    11 ar
    10     6    27 1
    11     7    12 1
    12     7    16 1
    13     7    17 1
    14     8    10 ar
    15     9    13 1
    16     9    18 1
    17     9    19 1
    18    10    11 ar
    19    11    14 1
    20    12    13 1
    21    14    20 2
    22    14    21 1
    23    15    28 1
    24    15    29 1
    25    20    22 1
    26    22    23 2
    27    23    24 1
    28    24    25 2
    29    24    26 1
    30    25    27 1
    31     5    30 1
    32     8    31 1
    33    12    32 1
    34    12    33 1
    35    13    34 1
    36    13    35 1
    37    15    36 1
    38    15    37 1
    39    16    38 1
    40    16    39 1
    41    16    40 1
    42    17    41 1
    43    17    42 1
    44    17    43 1
    45    18    44 1
    46    18    45 1
    47    18    46 1
    48    19    47 1
    49    19    48 1
    50    19    49 1
    51    20    50 1
    52    21    51 1
    53    21    52 1
    54    21    53 1
    55    22    54 1
    56    23    55 1
    57    25    56 1
    58    26    57 1
    59    26    58 1
    60    26    59 1
    61    28    60 1
    62    28    61 1
    63    29    62 1
    64    29    63 1
    65    29    64 1
@<TRIPOS>SUBSTRUCTURE
     1 754         1 TEMP              0 ****  ****    0 ROOT
