@<TRIPOS>MOLECULE
754
   64    65     1     0     0
SMALL
bcc


@<TRIPOS>ATOM
      1 C1          0.7140   -0.2990   -0.2210 ca        1 754     -0.087300
      2 O1          2.2430    0.7530    3.5340 os        1 754     -0.329900
      3 C2          1.8940    0.4560   -0.1490 ca        1 754     -0.047300
      4 O2         -2.5500   -7.0320    5.9510 o         1 754     -0.834800
      5 C3          0.1070   -0.7320    0.9680 ca        1 754     -0.103000
      6 O3         -0.8200   -6.6020    7.2910 o         1 754     -0.834800
      7 C4          0.0680   -0.6870   -1.5240 c3        1 754      0.000300
      8 C5          2.4080    0.7980    1.1090 ca        1 754     -0.195000
      9 C6          2.6380    0.9300   -1.3700 c3        1 754     -0.002700
     10 C7          1.7820    0.3750    2.2840 ca        1 754      0.118100
     11 C8          0.6140   -0.4170    2.2310 ca        1 754     -0.034800
     12 C9          0.6490    0.1130   -2.6910 c3        1 754     -0.068400
     13 C10         2.1520    0.2090   -2.6280 c3        1 754     -0.067400
     14 C11        -0.0720   -0.8950    3.4320 ce        1 754     -0.106400
     15 C12         3.9850    0.6890    5.1270 c3        1 754     -0.091400
     16 C13        -1.4330   -0.4040   -1.4780 c3        1 754     -0.085600
     17 C14         0.2750   -2.1800   -1.7630 c3        1 754     -0.085600
     18 C15         4.1330    0.6450   -1.2280 c3        1 754     -0.083100
     19 C16         2.4410    2.4350   -1.5260 c3        1 754     -0.083100
     20 C17        -0.2860   -2.2020    3.6900 cf        1 754     -0.075000
     21 C18        -0.5480    0.1560    4.3680 c3        1 754     -0.046900
     22 C19         0.1500   -3.3000    2.8590 cf        1 754     -0.199000
     23 C20        -0.1840   -4.5860    3.0560 ce        1 754     -0.055000
     24 C21        -1.0760   -5.1180    4.0830 ce        1 754     -0.161200
     25 C22        -0.6090   -5.9520    5.0260 cf        1 754     -0.157200
     26 C23        -2.5020   -4.7230    3.9710 c3        1 754     -0.046900
     27 C24        -1.3940   -6.5660    6.1640 c         1 754      0.895800
     28 C25         3.6690    0.8480    3.6490 c3        1 754      0.131400
     29 C26         5.4630    0.8360    5.3710 c3        1 754     -0.091100
     30 H3         -0.7980   -1.3590    0.9190 ha        1 754      0.147000
     31 H5          3.3180    1.4120    1.1750 ha        1 754      0.129000
     32 H9          0.2070    1.1440   -2.6850 hc        1 754      0.038700
     33 H9A         0.3450   -0.3760   -3.6540 hc        1 754      0.038700
     34 H10         2.5950   -0.8230   -2.6520 hc        1 754      0.039200
     35 H10A        2.5310    0.7570   -3.5310 hc        1 754      0.039200
     36 H12         3.4150    1.4580    5.7100 hc        1 754      0.060700
     37 H12A        3.6310   -0.3180    5.4720 hc        1 754      0.060700
     38 H13        -1.8690   -0.5060   -2.5010 hc        1 754      0.036700
     39 H13A       -1.6220    0.6320   -1.1090 hc        1 754      0.036700
     40 H13B       -1.9540   -1.1250   -0.8040 hc        1 754      0.036700
     41 H14         1.3600   -2.4140   -1.8690 hc        1 754      0.036700
     42 H14A       -0.2540   -2.4950   -2.6950 hc        1 754      0.036700
     43 H14B       -0.1320   -2.7660   -0.9040 hc        1 754      0.036700
     44 H15         4.5990    1.3240   -0.4760 hc        1 754      0.033867
     45 H15A        4.6430    0.8070   -2.2080 hc        1 754      0.033867
     46 H15B        4.2970   -0.4110   -0.9080 hc        1 754      0.033867
     47 H16         3.0260    2.8090   -2.4000 hc        1 754      0.033867
     48 H16A        2.7890    2.9650   -0.6070 hc        1 754      0.033867
     49 H16B        1.3630    2.6750   -1.6850 hc        1 754      0.033867
     50 H17        -0.8210   -2.4930    4.6150 ha        1 754      0.146000
     51 H18         0.3190    0.7460    4.7570 hc        1 754      0.039033
     52 H18A       -1.2400    0.8580    3.8400 hc        1 754      0.039033
     53 H18B       -1.0920   -0.2920    5.2360 hc        1 754      0.039033
     54 H19         0.8190   -3.0340    2.0220 ha        1 754      0.109000
     55 H20         0.2460   -5.3540    2.3850 ha        1 754      0.104000
     56 H22         0.4610   -6.2170    5.0460 ha        1 754      0.099000
     57 H23        -2.8940   -4.9830    2.9560 hc        1 754      0.038367
     58 H23A       -2.6190   -3.6200    4.1150 hc        1 754      0.038367
     59 H23B       -3.1150   -5.2640    4.7390 hc        1 754      0.038367
     60 H25         4.1690    0.0500    3.0420 h1        1 754      0.033200
     61 H25A        3.9890    1.8570    3.2760 h1        1 754      0.033200
     62 H26         5.8220    1.8440    5.0470 hc        1 754      0.031700
     63 H26A        5.6860    0.7160    6.4590 hc        1 754      0.031700
     64 H26B        6.0370    0.0620    4.8070 hc        1 754      0.031700
@<TRIPOS>BOND
     1    1    3 ar  
     2    1    5 ar  
     3    1    7 1   
     4    2   10 1   
     5    2   28 1   
     6    3    8 ar  
     7    3    9 1   
     8    4   27 1   
     9    5   11 ar  
    10    5   30 1   
    11    6   27 1   
    12    7   12 1   
    13    7   16 1   
    14    7   17 1   
    15    8   10 ar  
    16    8   31 1   
    17    9   13 1   
    18    9   18 1   
    19    9   19 1   
    20   10   11 ar  
    21   11   14 1   
    22   12   13 1   
    23   12   32 1   
    24   12   33 1   
    25   13   34 1   
    26   13   35 1   
    27   14   20 2   
    28   14   21 1   
    29   15   28 1   
    30   15   29 1   
    31   15   36 1   
    32   15   37 1   
    33   16   38 1   
    34   16   39 1   
    35   16   40 1   
    36   17   41 1   
    37   17   42 1   
    38   17   43 1   
    39   18   44 1   
    40   18   45 1   
    41   18   46 1   
    42   19   47 1   
    43   19   48 1   
    44   19   49 1   
    45   20   22 1   
    46   20   50 1   
    47   21   51 1   
    48   21   52 1   
    49   21   53 1   
    50   22   23 2   
    51   22   54 1   
    52   23   24 1   
    53   23   55 1   
    54   24   25 2   
    55   24   26 1   
    56   25   27 1   
    57   25   56 1   
    58   26   57 1   
    59   26   58 1   
    60   26   59 1   
    61   28   60 1   
    62   28   61 1   
    63   29   62 1   
    64   29   63 1   
    65   29   64 1   
@<TRIPOS>SUBSTRUCTURE
     1 754         1 TEMP              0 ****  ****    0 ROOT
