@<TRIPOS>MOLECULE
755
   48    49     1     0     0
SMALL
bcc


@<TRIPOS>ATOM
      1 O1           0.0000     0.0000     0.0000 o          1 755      -0.881800
      2 C7          11.2120    -1.8360    -1.9130 c3         1 755       0.012233
      3 O2           1.9550     0.0000     1.0530 o          1 755      -0.881800
      4 C6           9.0060    -1.0990    -2.8260 c3         1 755       0.012233
      5 C1           7.1700     0.6270     3.1350 c3         1 755      -0.027400
      6 C5           9.9960    -0.9410    -1.6690 c3         1 755      -0.146000
      7 C4           9.3530    -1.3100    -0.3570 c          1 755       0.584100
      8 C3           7.6350    -1.0090     1.3420 c3         1 755       0.021700
      9 C2           8.2880    -0.2190     2.4890 c3         1 755      -0.043400
     10 Cl           4.3330     0.0030    -5.1870 cl         1 755      -0.110400
     11 C13          3.4720     0.0010    -3.6790 ca         1 755       0.029400
     12 C14          2.0890     0.1230    -3.6740 ca         1 755      -0.211000
     13 C12          4.1660    -0.1270    -2.4920 ca         1 755      -0.254000
     14 C11          3.4830    -0.1300    -1.2830 ca         1 755       0.118600
     15 C16          2.0840    -0.0010    -1.2750 ca         1 755      -0.193600
     16 C17          1.3480     0.0000     0.0000 c          1 755       0.998200
     17 C15          1.3950     0.1230    -2.4850 ca         1 755      -0.004000
     18 C10          5.6210    -0.5160    -0.1050 c3         1 755       0.163800
     19 C9           6.1370    -0.6140     1.3310 c3         1 755      -0.064700
     20 C            6.1080     0.7750     2.0170 c3         1 755      -0.029400
     21 N            8.2580    -0.6490     0.0670 ns         1 755      -0.192900
     22 O            9.8230    -2.2030     0.3170 o          1 755      -0.662100
     23 C8          10.4400     0.5230    -1.6260 c3         1 755       0.012233
     24 H2          11.9110    -1.7260    -1.0940 hc         1 755       0.008589
     25 H3          11.6930    -1.5470    -2.8400 hc         1 755       0.008589
     26 H4          10.8920    -2.8690    -1.9790 hc         1 755       0.008589
     27 H5           9.5500    -1.1710    -3.7600 hc         1 755       0.008589
     28 H6           8.4200    -1.9980    -2.6800 hc         1 755       0.008589
     29 H7           8.3470    -0.2390    -2.8580 hc         1 755       0.008589
     30 H8           6.7500     0.1080     3.9890 hc         1 755       0.012700
     31 H9           7.5510     1.5990     3.4240 hc         1 755       0.012700
     32 H10          3.6880    -0.2190     0.7830 hn         1 755       0.388800
     33 H11          7.7350    -2.0730     1.5230 h1         1 755       0.056700
     34 H12          8.7030    -0.9020     3.2200 hc         1 755       0.017700
     35 H13          9.0620     0.4300     2.0980 hc         1 755       0.017700
     36 H14          1.5540     0.2190    -4.6110 ha         1 755       0.099000
     37 H15          5.2450    -0.2230    -2.5040 ha         1 755       0.108000
     38 H16          0.3160     0.2210    -2.4870 ha         1 755       0.127000
     39 H17          5.8160    -1.4460    -0.6240 h1         1 755       0.003200
     40 H18          6.1260     0.2950    -0.6160 h1         1 755       0.003200
     41 H19          5.5560    -1.3280     1.9020 hc         1 755       0.052700
     42 H20          6.3930     1.5520     1.3190 hc         1 755       0.030200
     43 H21          5.1300     0.9700     2.4420 hc         1 755       0.030200
     44 H22          7.9030     0.1220    -0.4620 hn         1 755       0.193500
     45 H23          9.5710     1.1670    -1.6870 hc         1 755       0.008589
     46 H24         11.0990     0.7260    -2.4620 hc         1 755       0.008589
     47 H25         10.9660     0.7140    -0.6980 hc         1 755       0.008589
     48 N1           4.1790    -0.2590    -0.0880 nu         1 755      -0.479600
@<TRIPOS>BOND
     1     1    16 1   
     2     2     6 1   
     3     2    24 1   
     4     2    25 1   
     5     2    26 1   
     6     3    16 1   
     7     4     6 1   
     8     4    27 1   
     9     4    28 1   
    10     4    29 1   
    11     5     9 1   
    12     5    20 1   
    13     5    30 1   
    14     5    31 1   
    15     6     7 1   
    16     6    23 1   
    17     7    21 1   
    18     7    22 2   
    19     8     9 1   
    20     8    19 1   
    21     8    21 1   
    22     8    33 1   
    23     9    34 1   
    24     9    35 1   
    25    10    11 1   
    26    11    12 ar  
    27    11    13 ar  
    28    12    17 ar  
    29    12    36 1   
    30    13    14 ar  
    31    13    37 1   
    32    14    15 ar  
    33    14    48 1   
    34    15    16 1   
    35    15    17 ar  
    36    17    38 1   
    37    18    19 1   
    38    18    39 1   
    39    18    40 1   
    40    18    48 1   
    41    19    20 1   
    42    19    41 1   
    43    20    42 1   
    44    20    43 1   
    45    21    44 1   
    46    23    45 1   
    47    23    46 1   
    48    23    47 1   
    49    32    48 1   
@<TRIPOS>SUBSTRUCTURE
     1 755         1 TEMP              0 ****  ****    0 ROOT
