@<TRIPOS>MOLECULE
758
   42    43     1     0     0
SMALL
bcc


@<TRIPOS>ATOM
      1 C7           0.0000     0.0000     0.0000 ca         1 758      -0.134300
      2 C6           0.0050     0.0010     2.4030 ca         1 758      -0.165600
      3 C1           1.3840     0.0000     0.0000 ca         1 758      -0.046000
      4 C5          -4.3840     0.0030     6.3320 cc         1 758       0.338200
      5 C4          -3.2400     0.0020     7.0380 cd         1 758      -0.443600
      6 C3          -0.6930     0.0000     1.1930 ca         1 758      -0.054000
      7 C2           2.0830     0.0000     1.1930 ca         1 758      -0.114000
      8 C8           1.4020     0.0000     2.3940 ca         1 758       0.017400
      9 C9          -2.7690     0.0030     4.8900 cd         1 758       0.160400
     10 C10         -0.7310     0.0020     3.6840 c          1 758       0.583700
     11 C11         -1.6570    -1.6150    -2.8840 c          1 758       0.582100
     12 C12         -2.6710    -3.0270    -4.6520 c3         1 758       0.013900
     13 C13         -0.5700    -3.7540    -3.5100 c3         1 758       0.013900
     14 C14         -2.7360    -3.7600    -2.2640 c3         1 758       0.013900
     15 C15         -0.7520     0.0060    -1.3050 c3         1 758       0.113300
     16 C16         -1.9070    -3.0340    -3.3260 c3         1 758      -0.144000
     17 N17         -2.2080     0.0010     6.1290 na         1 758       0.244100
     18 N18         -4.0740     0.0040     5.0260 nc         1 758      -0.656000
     19 N19         -2.0780     0.0020     3.6860 ns         1 758      -0.048400
     20 N20         -0.9960    -1.3740    -1.7350 ns         1 758      -0.207900
     21 O21         -0.1200     0.0010     4.7340 o          1 758      -0.670100
     22 O22         -2.0510    -0.6910    -3.5630 o          1 758      -0.641100
     23 Cl23         2.2810     0.0010     3.8930 cl         1 758       0.045600
     24 H1           1.9220    -0.0000    -0.9400 ha         1 758       0.113000
     25 H2          -5.3860     0.0040     6.7460 h4         1 758       0.003100
     26 H3          -3.1490     0.0020     8.1170 h4         1 758       0.154000
     27 H4          -1.7760     0.0010     1.1910 ha         1 758       0.113000
     28 H5           3.1660    -0.0000     1.1850 ha         1 758       0.122000
     29 H6          -2.8510    -4.0470    -4.9700 hc         1 758       0.009589
     30 H7          -3.6180    -2.5170    -4.5210 hc         1 758       0.009589
     31 H8          -2.0850    -2.5130    -5.4040 hc         1 758       0.009589
     32 H9          -0.7310    -4.6810    -4.0490 hc         1 758       0.009589
     33 H10         -0.1400    -3.9710    -2.5400 hc         1 758       0.009589
     34 H11          0.1060    -3.1220    -4.0730 hc         1 758       0.009589
     35 H12         -3.1180    -4.6860    -2.6750 hc         1 758       0.009589
     36 H13         -3.5640    -3.1310    -1.9610 hc         1 758       0.009589
     37 H14         -2.1130    -3.9760    -1.4050 hc         1 758       0.009589
     38 H15         -0.1660     0.5200    -2.0570 h1         1 758       0.031200
     39 H16         -1.6990     0.5160    -1.1740 h1         1 758       0.031200
     40 H17         -1.2300     0.0000     6.3400 hn         1 758       0.172700
     41 H19         -2.5800     0.0180     2.8210 hn         1 758       0.186500
     42 H20         -0.6720    -2.1370    -1.1740 hn         1 758       0.182500
@<TRIPOS>BOND
     1     1     3 ar  
     2     1     6 ar  
     3     1    15 1   
     4     2     6 ar  
     5     2     8 ar  
     6     2    10 1   
     7     3     7 ar  
     8     3    24 1   
     9     4     5 2   
    10     4    18 1   
    11     4    25 1   
    12     5    17 1   
    13     5    26 1   
    14     6    27 1   
    15     7     8 ar  
    16     7    28 1   
    17     8    23 1   
    18     9    17 1   
    19     9    18 2   
    20     9    19 1   
    21    10    19 1   
    22    10    21 2   
    23    11    16 1   
    24    11    20 1   
    25    11    22 2   
    26    12    16 1   
    27    12    29 1   
    28    12    30 1   
    29    12    31 1   
    30    13    16 1   
    31    13    32 1   
    32    13    33 1   
    33    13    34 1   
    34    14    16 1   
    35    14    35 1   
    36    14    36 1   
    37    14    37 1   
    38    15    20 1   
    39    15    38 1   
    40    15    39 1   
    41    17    40 1   
    42    19    41 1   
    43    20    42 1   
@<TRIPOS>SUBSTRUCTURE
     1 758         1 TEMP              0 ****  ****    0 ROOT
