@<TRIPOS>MOLECULE
molecule
   42    43     1     0     0
SMALL
bcc


@<TRIPOS>ATOM
      1 C7           0.0000     0.0000     0.0000 ca         1 758      -0.124300
      2 C6           0.0050     0.0010     2.4030 ca         1 758      -0.151600
      3 C1           1.3840     0.0000     0.0000 ca         1 758      -0.077000
      4 C5          -4.3840     0.0030     6.3320 cc         1 758       0.325200
      5 C4          -3.2400     0.0020     7.0380 cd         1 758      -0.278600
      6 C3          -0.6930     0.0000     1.1930 ca         1 758      -0.078000
      7 C2           2.0830     0.0000     1.1930 ca         1 758      -0.136000
      8 C8           1.4020     0.0000     2.3940 ca         1 758       0.088400
      9 C9          -2.7690     0.0030     4.8900 cd         1 758       0.519400
     10 C10         -0.7310     0.0020     3.6840 c          1 758       0.682700
     11 C11         -1.6570    -1.6150    -2.8840 c          1 758       0.666100
     12 C12         -2.6710    -3.0270    -4.6520 c3         1 758      -0.077767
     13 C13         -0.5700    -3.7540    -3.5100 c3         1 758      -0.077767
     14 C14         -2.7360    -3.7600    -2.2640 c3         1 758      -0.077767
     15 C15         -0.7520     0.0060    -1.3050 c3         1 758       0.160300
     16 C16         -1.9070    -3.0340    -3.3260 c3         1 758      -0.142000
     17 N17         -2.2080     0.0010     6.1290 na         1 758      -0.292900
     18 N18         -4.0740     0.0040     5.0260 nc         1 758      -0.733000
     19 N19         -2.0780     0.0020     3.6860 ns         1 758      -0.519400
     20 N20         -0.9960    -1.3740    -1.7350 ns         1 758      -0.588900
     21 O21         -0.1200     0.0010     4.7340 o          1 758      -0.601100
     22 O22         -2.0510    -0.6910    -3.5630 o          1 758      -0.604100
     23 Cl23         2.2810     0.0010     3.8930 cl         1 758      -0.053400
     24 H1           1.9220    -0.0000    -0.9400 ha         1 758       0.148000
     25 H2          -5.3860     0.0040     6.7460 h4         1 758       0.042100
     26 H3          -3.1490     0.0020     8.1170 h4         1 758       0.177000
     27 H4          -1.7760     0.0010     1.1910 ha         1 758       0.141000
     28 H5           3.1660    -0.0000     1.1850 ha         1 758       0.155000
     29 H6          -2.8510    -4.0470    -4.9700 hc         1 758       0.042144
     30 H7          -3.6180    -2.5170    -4.5210 hc         1 758       0.042144
     31 H8          -2.0850    -2.5130    -5.4040 hc         1 758       0.042144
     32 H9          -0.7310    -4.6810    -4.0490 hc         1 758       0.042144
     33 H10         -0.1400    -3.9710    -2.5400 hc         1 758       0.042144
     34 H11          0.1060    -3.1220    -4.0730 hc         1 758       0.042144
     35 H12         -3.1180    -4.6860    -2.6750 hc         1 758       0.042144
     36 H13         -3.5640    -3.1310    -1.9610 hc         1 758       0.042144
     37 H14         -2.1130    -3.9760    -1.4050 hc         1 758       0.042144
     38 H15         -0.1660     0.5200    -2.0570 h1         1 758       0.062700
     39 H16         -1.6990     0.5160    -1.1740 h1         1 758       0.062700
     40 H17         -1.2300     0.0000     6.3400 hn         1 758       0.334700
     41 H19         -2.5800     0.0180     2.8210 hn         1 758       0.352500
     42 H20         -0.6720    -2.1370    -1.1740 hn         1 758       0.318500
@<TRIPOS>BOND
     1    14    16 1
     2    12    16 1
     3    13    16 1
     4    16    11 1
     5     5    17 1
     6     5     4 2
     7    17     9 1
     8    11    22 2
     9    11    20 1
    10     4    18 1
    11     9    19 1
    12     9    18 2
    13    20    15 1
    14    19    10 1
    15    15     1 1
    16     6     1 ar
    17     6     2 ar
    18    10     2 1
    19    10    21 2
    20     1     3 ar
    21     2     8 ar
    22     3     7 ar
    23     8     7 ar
    24     8    23 1
    25     3    24 1
    26     4    25 1
    27     5    26 1
    28     6    27 1
    29     7    28 1
    30    12    29 1
    31    12    30 1
    32    12    31 1
    33    13    32 1
    34    13    33 1
    35    13    34 1
    36    14    35 1
    37    14    36 1
    38    14    37 1
    39    15    38 1
    40    15    39 1
    41    17    40 1
    42    19    41 1
    43    20    42 1
@<TRIPOS>SUBSTRUCTURE
     1 758         1 TEMP              0 ****  ****    0 ROOT
