@<TRIPOS>MOLECULE
75D
   42    42     1     0     0
SMALL
bcc


@<TRIPOS>ATOM
      1 OAI         0.4190   -0.4530    0.0240 o         1 75D     -0.743200
      2 SAS         1.8160   -0.2410   -0.0040 s6        1 75D      1.452100
      3 OAG         2.3900   -0.0730    1.2760 o         1 75D     -0.743200
      4 OAH         2.5230   -1.1960   -0.7750 o         1 75D     -0.743200
      5 CAO         2.0200    1.3180   -0.8890 ca        1 75D     -0.233500
      6 CAM         2.2930    2.5370   -0.2460 ca        1 75D      0.015700
      7 CAQ         2.1890    2.7080    1.2440 c3        1 75D     -0.038900
      8 CAD         3.5620    2.6640    1.8860 c3        1 75D     -0.081100
      9 CAC         1.4690    3.9920    1.6130 c3        1 75D     -0.081100
     10 CAJ         2.6570    3.6710   -0.9870 ca        1 75D     -0.165000
     11 CAL         2.6940    3.6380   -2.3800 ca        1 75D     -0.076300
     12 CAP         3.1170    4.8470   -3.1540 c3        1 75D     -0.016400
     13 CAB         4.3480    4.5550   -3.9900 c3        1 75D     -0.084100
     14 CAA         1.9900    5.3560   -4.0320 c3        1 75D     -0.084100
     15 CAK         2.3140    2.4620   -3.0270 ca        1 75D     -0.165000
     16 CAN         1.9540    1.3240   -2.2950 ca        1 75D      0.015700
     17 CAR         1.4760    0.1310   -3.0770 c3        1 75D     -0.038900
     18 CAF         0.4160    0.5230   -4.0900 c3        1 75D     -0.081100
     19 CAE         2.6380   -0.5650   -3.7580 c3        1 75D     -0.081100
     20 H1          1.5800    1.8550    1.6690 hc        1 75D      0.098700
     21 H2          3.9860    1.6340    1.7770 hc        1 75D      0.027783
     22 H3          3.4830    2.9050    2.9730 hc        1 75D      0.027783
     23 H4          4.2490    3.4020    1.4050 hc        1 75D      0.027783
     24 H5          1.1630    3.9540    2.6870 hc        1 75D      0.027783
     25 H6          2.1260    4.8840    1.4750 hc        1 75D      0.027783
     26 H7          0.5550    4.1220    0.9870 hc        1 75D      0.027783
     27 H8          2.9210    4.6010   -0.4620 ha        1 75D      0.113500
     28 H9          3.3820    5.6660   -2.4230 hc        1 75D      0.038700
     29 H10         4.6700    5.4740   -4.5370 hc        1 75D      0.029200
     30 H11         5.1870    4.2140   -3.3370 hc        1 75D      0.029200
     31 H12         4.1340    3.7520   -4.7360 hc        1 75D      0.029200
     32 H13         1.0960    5.6020   -3.4100 hc        1 75D      0.029200
     33 H14         1.6960    4.5810   -4.7800 hc        1 75D      0.029200
     34 H15         2.3110    6.2750   -4.5790 hc        1 75D      0.029200
     35 H16         2.3030    2.4300   -4.1260 ha        1 75D      0.113500
     36 H17         0.9960   -0.6080   -2.3680 hc        1 75D      0.098700
     37 H18        -0.0630   -0.3960   -4.5060 hc        1 75D      0.027783
     38 H19         0.8560    1.0990   -4.9390 hc        1 75D      0.027783
     39 H20        -0.3720    1.1480   -3.6060 hc        1 75D      0.027783
     40 H21         3.3120   -0.9990   -2.9770 hc        1 75D      0.027783
     41 H22         2.2610   -1.3900   -4.4080 hc        1 75D      0.027783
     42 H23         3.2150    0.1520   -4.3900 hc        1 75D      0.027783
@<TRIPOS>BOND
     1    1    2 1   
     2    2    3 1   
     3    2    4 1   
     4    2    5 1   
     5    5    6 ar  
     6    5   16 ar  
     7    6    7 1   
     8    6   10 ar  
     9    7    8 1   
    10    7    9 1   
    11    7   20 1   
    12    8   21 1   
    13    8   22 1   
    14    8   23 1   
    15    9   24 1   
    16    9   25 1   
    17    9   26 1   
    18   10   11 ar  
    19   10   27 1   
    20   11   12 1   
    21   11   15 ar  
    22   12   13 1   
    23   12   14 1   
    24   12   28 1   
    25   13   29 1   
    26   13   30 1   
    27   13   31 1   
    28   14   32 1   
    29   14   33 1   
    30   14   34 1   
    31   15   16 ar  
    32   15   35 1   
    33   16   17 1   
    34   17   18 1   
    35   17   19 1   
    36   17   36 1   
    37   18   37 1   
    38   18   38 1   
    39   18   39 1   
    40   19   40 1   
    41   19   41 1   
    42   19   42 1   
@<TRIPOS>SUBSTRUCTURE
     1 75D         1 TEMP              0 ****  ****    0 ROOT
