@<TRIPOS>MOLECULE
molecule
   42    42     1     0     0
SMALL
bcc


@<TRIPOS>ATOM
      1 OAI          0.0000     0.0000     0.0000 o          1 75D      -0.707533
      2 SAS          1.4210     0.0000     0.0000 s6         1 75D       1.337100
      3 OAG          2.1980     0.0000     1.1890 o          1 75D      -0.707533
      4 OAH          1.8500    -1.2250    -0.7950 o          1 75D      -0.707533
      5 CAO          1.9180     1.4190    -0.9190 ca         1 75D      -0.261500
      6 CAM          2.2840     2.5770    -0.2590 ca         1 75D       0.022200
      7 CAQ          2.2580     2.6260     1.2470 c3         1 75D      -0.068400
      8 CAD          3.6870     2.7360     1.7790 c3         1 75D      -0.071850
      9 CAC          1.4490     3.8420     1.7040 c3         1 75D      -0.071850
     10 CAJ          2.6740     3.6900    -0.9810 ca         1 75D      -0.162000
     11 CAL          2.6970     3.6450    -2.3620 ca         1 75D      -0.068300
     12 CAP          3.1230     4.8590    -3.1470 c3         1 75D      -0.027400
     13 CAB          4.3490     4.5130    -3.9950 c3         1 75D      -0.083100
     14 CAA          1.9790     5.3010    -4.0620 c3         1 75D      -0.083100
     15 CAK          2.3320     2.4870    -3.0220 ca         1 75D      -0.162000
     16 CAN          1.9470     1.3720    -2.3010 ca         1 75D       0.022200
     17 CAR          1.5490     0.1100    -3.0210 c3         1 75D      -0.068400
     18 CAF          0.4750     0.4340    -4.0610 c3         1 75D      -0.071850
     19 CAE          2.7710    -0.4870    -3.7180 c3         1 75D      -0.071850
     20 H1           1.7980     1.7230     1.6300 hc         1 75D       0.133700
     21 H2           4.0430     3.7510     1.6520 hc         1 75D       0.024200
     22 H3           3.7020     2.4770     2.8310 hc         1 75D       0.024200
     23 H4           4.3290     2.0570     1.2310 hc         1 75D       0.024200
     24 H5           1.1970     3.7360     2.7520 hc         1 75D       0.024200
     25 H6           0.5390     3.9110     1.1190 hc         1 75D       0.024200
     26 H7           2.0370     4.7410     1.5630 hc         1 75D       0.024200
     27 H8           2.9610     4.5970    -0.4630 ha         1 75D       0.114500
     28 H9           3.3710     5.6620    -2.4640 hc         1 75D       0.043700
     29 H10          4.0400     3.9320    -4.8560 hc         1 75D       0.030200
     30 H11          4.8270     5.4260    -4.3280 hc         1 75D       0.030200
     31 H12          5.0470     3.9350    -3.4010 hc         1 75D       0.030200
     32 H13          1.9200     4.6350    -4.9150 hc         1 75D       0.030200
     33 H14          1.0450     5.2680    -3.5130 hc         1 75D       0.030200
     34 H15          2.1610     6.3120    -4.4050 hc         1 75D       0.030200
     35 H16          2.3520     2.4510    -4.1040 ha         1 75D       0.114500
     36 H17          1.1560    -0.6040    -2.3070 hc         1 75D       0.133700
     37 H18         -0.2400     1.1290    -3.6390 hc         1 75D       0.024200
     38 H19          0.9390     0.8790    -4.9330 hc         1 75D       0.024200
     39 H20         -0.0350    -0.4780    -4.3500 hc         1 75D       0.024200
     40 H21          2.5820    -1.5290    -3.9500 hc         1 75D       0.024200
     41 H22          2.9660     0.0570    -4.6340 hc         1 75D       0.024200
     42 H23          3.6320    -0.4130    -3.0640 hc         1 75D       0.024200
@<TRIPOS>BOND
     1    14    12 1
     2    13    12 1
     3    12    11 1
     4    11    10 ar
     5    11    15 ar
     6    10     6 ar
     7    15    16 ar
     8     8     7 1
     9     6     7 1
    10     6     5 ar
    11     9     7 1
    12    16     5 ar
    13    16    17 1
    14    19    17 1
    15     5     2 1
    16    17    18 1
    17     2     1 1
    18     2     3 1
    19     2     4 1
    20     7    20 1
    21     8    21 1
    22     8    22 1
    23     8    23 1
    24     9    24 1
    25     9    25 1
    26     9    26 1
    27    10    27 1
    28    12    28 1
    29    13    29 1
    30    13    30 1
    31    13    31 1
    32    14    32 1
    33    14    33 1
    34    14    34 1
    35    15    35 1
    36    17    36 1
    37    18    37 1
    38    18    38 1
    39    18    39 1
    40    19    40 1
    41    19    41 1
    42    19    42 1
@<TRIPOS>SUBSTRUCTURE
     1 75D         1 TEMP              0 ****  ****    0 ROOT
