@<TRIPOS>MOLECULE
molecule
   41    45     1     0     0
SMALL
bcc


@<TRIPOS>ATOM
      1 C1           0.0000     0.0000     0.0000 cc         1 75E      -0.255200
      2 C2           1.4060     0.0000     0.0000 c          1 75E       0.681700
      3 C3           1.4380    -0.0000     2.3500 cc         1 75E       0.015600
      4 C7          -1.4030     0.9110     5.6540 cc         1 75E      -0.056100
      5 C8          -1.2590    -1.1350     4.2020 cc         1 75E      -0.118600
      6 C9          -1.3140    -2.4480     3.5440 cc         1 75E       0.613800
      7 C10         -1.9870    -3.5200     4.1620 cc         1 75E      -0.417300
      8 C11         -2.0270    -4.7310     3.5350 cd         1 75E       0.345300
      9 C12         -0.7680    -3.8080     1.7500 cd         1 75E       0.487500
     10 C13         -0.2460    -4.2590     0.5210 cc         1 75E      -0.248300
     11 C14         -0.5960    -5.6170     0.4010 cc         1 75E       0.466500
     12 C15          0.5030    -3.4850    -0.4220 cg         1 75E       0.235500
     13 C16         -3.2380    -5.6670     5.4660 cx         1 75E       0.162500
     14 N4           1.1100    -2.8640    -1.1550 n1         1 75E      -0.360800
     15 N3          -1.2810    -5.9700     1.4570 nd         1 75E      -0.596100
     16 N1          -1.4110    -4.8750     2.3180 na         1 75E      -0.000800
     17 N5          -2.6790    -5.7980     4.1180 nu         1 75E      -0.758600
     18 C18         -4.3220    -6.6640     5.8810 cx         1 75E      -0.145900
     19 C17         -2.9160    -6.7720     6.4750 cx         1 75E      -0.145900
     20 N2          -0.7330    -2.6250     2.3590 nd         1 75E      -0.715000
     21 S           -1.9800    -0.7450     5.7580 ss         1 75E      -0.126800
     22 C6          -0.7340     1.0980     4.5160 cd         1 75E      -0.158000
     23 C5          -0.6440    -0.0170     3.6940 cd         1 75E      -0.003800
     24 C4           0.0620    -0.0060     2.3920 cd         1 75E      -0.121200
     25 C           -0.6720     0.0010     1.1850 cd         1 75E      -0.016000
     26 N            2.0880     0.0000     1.1600 ns         1 75E      -0.404100
     27 O            2.0120    -0.0010    -1.0600 o          1 75E      -0.640500
     28 H1          -0.5420     0.0260    -0.9380 ha         1 75E       0.165000
     29 H2           1.9970    -0.0480     3.2760 h4         1 75E       0.152000
     30 H3          -1.5590     1.6880     6.3930 h4         1 75E       0.176000
     31 H4          -2.3910    -3.4020     5.1610 ha         1 75E       0.163000
     32 H5          -0.3490    -6.2670    -0.4300 h4         1 75E       0.072800
     33 H6          -3.3370    -4.6900     5.9230 h1         1 75E       0.108700
     34 H7          -2.7650    -6.6630     3.6230 hn         1 75E       0.470800
     35 H8          -4.5920    -7.3990     5.1320 hc         1 75E       0.084700
     36 H9          -5.0690    -6.2850     6.5670 hc         1 75E       0.084700
     37 H10         -2.2910    -7.5750     6.1040 hc         1 75E       0.084700
     38 H11         -2.8420    -6.4550     7.5080 hc         1 75E       0.084700
     39 H12         -0.2710     2.0240     4.1960 ha         1 75E       0.160000
     40 H14         -1.7540     0.0400     1.1950 ha         1 75E       0.136000
     41 H13          3.0880    -0.0320     1.1430 hn         1 75E       0.334500
@<TRIPOS>BOND
     1    27     2 2   
     2    14    12 3   
     3    12    10 1   
     4     2     1 1   
     5     2    26 1   
     6     1    25 2   
     7    26     3 1   
     8    10    11 1   
     9    10     9 2   
    10    11    15 2   
    11    25    24 1   
    12     3    24 2   
    13     9    20 1   
    14     9    16 1   
    15    15    16 1   
    16    24    23 1   
    17    20     6 2   
    18    16     8 1   
    19    23     5 2   
    20    23    22 1   
    21     6     5 1   
    22     6     7 1   
    23     8     7 2   
    24     8    17 1   
    25     5    21 1   
    26    22     4 2   
    27    17    13 1   
    28     4    21 1   
    29    13    18 1   
    30    13    19 1   
    31    18    19 1   
    32     1    28 1   
    33     3    29 1   
    34     4    30 1   
    35     7    31 1   
    36    11    32 1   
    37    13    33 1   
    38    17    34 1   
    39    18    35 1   
    40    18    36 1   
    41    19    37 1   
    42    19    38 1   
    43    22    39 1   
    44    25    40 1   
    45    26    41 1   
@<TRIPOS>SUBSTRUCTURE
     1 75E         1 TEMP              0 ****  ****    0 ROOT
