@<TRIPOS>MOLECULE
molecule
   70    74     1     0     0
SMALL
bcc


@<TRIPOS>ATOM
      1 C16          0.0000     0.0000     0.0000 c3         1 75H       0.128700
      2 O2           1.4290     0.0000     0.0000 os         1 75H      -0.325900
      3 C2           2.0460     0.0000     1.2100 ca         1 75H       0.156100
      4 C3           3.4210    -0.0010     1.2720 ca         1 75H      -0.224300
      5 C1           1.2770     0.0060     2.3770 ca         1 75H      -0.223000
      6 C6           1.8720     0.0060     3.6010 ca         1 75H      -0.049000
      7 C5           3.2700     0.0000     3.6990 ca         1 75H      -0.203300
      8 C4           4.0590    -0.0000     2.5230 ca         1 75H       0.481600
      9 N1           5.3940    -0.0070     2.6130 nb         1 75H      -0.719000
     10 C7           6.0050    -0.0130     3.7750 ca         1 75H       0.477200
     11 C8           5.3020    -0.0130     4.9720 ca         1 75H      -0.365300
     12 C9           3.9180    -0.0010     4.9560 ca         1 75H       0.196100
     13 O1           3.2050     0.0000     6.1080 os         1 75H      -0.229200
     14 C10          3.8860    -0.1180     7.2800 ca         1 75H       0.024100
     15 C11          4.3980     1.0130     7.9030 ca         1 75H       0.143900
     16 C12          5.0900     0.8910     9.0940 ca         1 75H      -0.173000
     17 F1           4.2220     2.2300     7.3450 f          1 75H      -0.124900
     18 C15          4.0630    -1.3680     7.8550 ca         1 75H      -0.091000
     19 C14          4.7540    -1.4890     9.0460 ca         1 75H      -0.172000
     20 C13          5.2720    -0.3600     9.6670 ca         1 75H       0.099600
     21 N2           5.9720    -0.4850    10.8730 ns         1 75H      -0.473100
     22 C22          5.8630     0.4730    11.8170 c          1 75H       0.734300
     23 O5           5.2340     1.4880    11.5830 o          1 75H      -0.629100
     24 C17          6.5030     0.2880    13.1240 cc         1 75H      -0.433400
     25 C19          7.2930    -0.8730    13.5630 c          1 75H       0.723700
     26 O3           7.5460    -1.8690    12.9120 o          1 75H      -0.647500
     27 C18          6.4860     1.1740    14.1850 cd         1 75H       0.247800
     28 C21          5.7980     2.5150    14.2010 c3         1 75H      -0.034900
     29 N3           7.1860     0.6370    15.2010 na         1 75H      -0.419400
     30 C28          7.3990     1.2730    16.5050 c3         1 75H       0.250800
     31 C29          6.2550     0.8970    17.4480 c3         1 75H       0.123800
     32 C30          6.1930    -0.6240    17.5940 c3         1 75H      -0.124100
     33 C31          6.4960     1.5320    18.8190 c3         1 75H      -0.124100
     34 O4           5.0200     1.3770    16.9130 oh         1 75H      -0.603800
     35 N4           7.6830    -0.6140    14.8290 n          1 75H      -0.217400
     36 C20          8.4570    -1.4590    15.6330 ca         1 75H       0.060600
     37 C23          8.0920    -2.7890    15.7970 ca         1 75H      -0.130500
     38 C24          8.8570    -3.6200    16.5910 ca         1 75H      -0.116000
     39 C25          9.9860    -3.1290    17.2220 ca         1 75H      -0.127000
     40 C26         10.3510    -1.8050    17.0610 ca         1 75H      -0.116000
     41 C27          9.5930    -0.9710    16.2640 ca         1 75H      -0.130500
     42 H1          -0.3610    -0.0030    -1.0210 h1         1 75H       0.042033
     43 H2          -0.3610    -0.8830     0.5140 h1         1 75H       0.042033
     44 H3          -0.3610     0.8860     0.5080 h1         1 75H       0.042033
     45 H4           4.0050     0.1120     0.3660 ha         1 75H       0.164000
     46 H5           0.1960     0.0100     2.3070 ha         1 75H       0.136000
     47 H6           1.2650     0.0110     4.4990 ha         1 75H       0.147000
     48 H7           7.0880    -0.0230     3.8000 h4         1 75H       0.022100
     49 H8           5.8350    -0.0180     5.9160 ha         1 75H       0.148000
     50 H9           5.4910     1.7730     9.5790 ha         1 75H       0.186000
     51 H10          3.6590    -2.2490     7.3710 ha         1 75H       0.151000
     52 H11          4.8940    -2.4660     9.4930 ha         1 75H       0.146000
     53 H12          6.5870    -1.2600    11.0160 hn         1 75H       0.356500
     54 H13          4.7250     2.3710    14.1810 hc         1 75H       0.071700
     55 H14          6.1020     3.0870    13.3320 hc         1 75H       0.071700
     56 H15          6.0740     3.0520    15.1000 hc         1 75H       0.071700
     57 H16          7.4270     2.3490    16.3810 h1         1 75H       0.080200
     58 H17          8.3390     0.9330    16.9230 h1         1 75H       0.080200
     59 H18          5.4680    -0.8840    18.3560 hc         1 75H       0.049867
     60 H19          7.1680    -1.0000    17.8790 hc         1 75H       0.049867
     61 H20          5.8970    -1.0660    16.6500 hc         1 75H       0.049867
     62 H21          6.4980     2.6110    18.7230 hc         1 75H       0.049867
     63 H22          5.7090     1.2310    19.5000 hc         1 75H       0.049867
     64 H23          7.4530     1.2030    19.2060 hc         1 75H       0.049867
     65 H24          4.3390     1.2810    17.5580 ho         1 75H       0.414000
     66 H25          7.2090    -3.1740    15.3030 ha         1 75H       0.145500
     67 H26          8.5740    -4.6580    16.7190 ha         1 75H       0.139000
     68 H27         10.5840    -3.7820    17.8470 ha         1 75H       0.136000
     69 H28         11.2360    -1.4240    17.5550 ha         1 75H       0.139000
     70 H29          9.8800     0.0660    16.1380 ha         1 75H       0.145500
@<TRIPOS>BOND
     1    32    31 1   
     2    40    39 ar  
     3    40    41 ar  
     4    39    38 ar  
     5    34    31 1   
     6    41    36 ar  
     7    38    37 ar  
     8    31    33 1   
     9    31    30 1   
    10    36    37 ar  
    11    36    35 1   
    12    30    29 1   
    13    35    29 1   
    14    35    25 1   
    15    29    27 1   
    16    25    26 2   
    17    25    24 1   
    18    27    28 1   
    19    27    24 2   
    20    24    22 1   
    21    22    21 1   
    22    22    23 2   
    23    21    20 1   
    24    20    16 ar  
    25    20    19 ar  
    26    16    15 ar  
    27    19    18 ar  
    28    15    17 1   
    29    15    14 ar  
    30    18    14 ar  
    31    14    13 1   
    32    13    12 1   
    33    12    11 ar  
    34    12     7 ar  
    35    11    10 ar  
    36     7     6 ar  
    37     7     8 ar  
    38    10     9 ar  
    39     6     5 ar  
    40     9     8 ar  
    41     8     4 ar  
    42     5     3 ar  
    43     4     3 ar  
    44     3     2 1   
    45     2     1 1   
    46     1    42 1   
    47     1    43 1   
    48     1    44 1   
    49     4    45 1   
    50     5    46 1   
    51     6    47 1   
    52    10    48 1   
    53    11    49 1   
    54    16    50 1   
    55    18    51 1   
    56    19    52 1   
    57    21    53 1   
    58    28    54 1   
    59    28    55 1   
    60    28    56 1   
    61    30    57 1   
    62    30    58 1   
    63    32    59 1   
    64    32    60 1   
    65    32    61 1   
    66    33    62 1   
    67    33    63 1   
    68    33    64 1   
    69    34    65 1   
    70    37    66 1   
    71    38    67 1   
    72    39    68 1   
    73    40    69 1   
    74    41    70 1   
@<TRIPOS>SUBSTRUCTURE
     1 75H         1 TEMP              0 ****  ****    0 ROOT
