@<TRIPOS>MOLECULE
75H
   70    74     1     0     0
SMALL
bcc


@<TRIPOS>ATOM
      1 C16          0.0000     0.0000     0.0000 c3         1 75H       0.243700
      2 O2           1.4290     0.0000     0.0000 os         1 75H      -0.305900
      3 C2           2.0460     0.0000     1.2100 ca         1 75H       0.165100
      4 C3           3.4210    -0.0010     1.2720 ca         1 75H      -0.213300
      5 C1           1.2770     0.0060     2.3770 ca         1 75H      -0.210000
      6 C6           1.8720     0.0060     3.6010 ca         1 75H      -0.017000
      7 C5           3.2700     0.0000     3.6990 ca         1 75H      -0.209300
      8 C4           4.0590    -0.0000     2.5230 ca         1 75H       0.444600
      9 N1           5.3940    -0.0070     2.6130 nb         1 75H      -0.619000
     10 C7           6.0050    -0.0130     3.7750 ca         1 75H       0.467200
     11 C8           5.3020    -0.0130     4.9720 ca         1 75H      -0.355300
     12 C9           3.9180    -0.0010     4.9560 ca         1 75H       0.206100
     13 O1           3.2050     0.0000     6.1080 os         1 75H      -0.200200
     14 C10          3.8860    -0.1180     7.2800 ca         1 75H       0.038100
     15 C11          4.3980     1.0130     7.9030 ca         1 75H       0.113900
     16 C12          5.0900     0.8910     9.0940 ca         1 75H      -0.142000
     17 F1           4.2220     2.2300     7.3450 f          1 75H      -0.118900
     18 C15          4.0630    -1.3680     7.8550 ca         1 75H      -0.072000
     19 C14          4.7540    -1.4890     9.0460 ca         1 75H      -0.138000
     20 C13          5.2720    -0.3600     9.6670 ca         1 75H      -0.045400
     21 N2           5.9720    -0.4850    10.8730 ns         1 75H      -0.046100
     22 C22          5.8630     0.4730    11.8170 c          1 75H       0.660300
     23 O5           5.2340     1.4880    11.5830 o          1 75H      -0.675100
     24 C17          6.5030     0.2880    13.1240 cc         1 75H      -0.468400
     25 C19          7.2930    -0.8730    13.5630 c          1 75H       0.653700
     26 O3           7.5460    -1.8690    12.9120 o          1 75H      -0.693500
     27 C18          6.4860     1.1740    14.1850 cd         1 75H       0.099800
     28 C21          5.7980     2.5150    14.2010 c3         1 75H       0.071100
     29 N3           7.1860     0.6370    15.2010 na         1 75H      -0.137400
     30 C28          7.3990     1.2730    16.5050 c3         1 75H       0.155800
     31 C29          6.2550     0.8970    17.4480 c3         1 75H       0.143800
     32 C30          6.1930    -0.6240    17.5940 c3         1 75H      -0.041100
     33 C31          6.4960     1.5320    18.8190 c3         1 75H      -0.041100
     34 O4           5.0200     1.3770    16.9130 oh         1 75H      -0.587800
     35 N4           7.6830    -0.6140    14.8290 n          1 75H       0.055600
     36 C20          8.4570    -1.4590    15.6330 ca         1 75H      -0.074400
     37 C23          8.0920    -2.7890    15.7970 ca         1 75H      -0.103000
     38 C24          8.8570    -3.6200    16.5910 ca         1 75H      -0.084500
     39 C25          9.9860    -3.1290    17.2220 ca         1 75H      -0.094000
     40 C26         10.3510    -1.8050    17.0610 ca         1 75H      -0.084500
     41 C27          9.5930    -0.9710    16.2640 ca         1 75H      -0.103000
     42 H1          -0.3610    -0.0030    -1.0210 h1         1 75H      -0.002633
     43 H2          -0.3610    -0.8830     0.5140 h1         1 75H      -0.002633
     44 H3          -0.3610     0.8860     0.5080 h1         1 75H      -0.002633
     45 H4           4.0050     0.1120     0.3660 ha         1 75H       0.133000
     46 H5           0.1960     0.0100     2.3070 ha         1 75H       0.121000
     47 H6           1.2650     0.0110     4.4990 ha         1 75H       0.114000
     48 H7           7.0880    -0.0230     3.8000 h4         1 75H      -0.025900
     49 H8           5.8350    -0.0180     5.9160 ha         1 75H       0.133000
     50 H9           5.4910     1.7730     9.5790 ha         1 75H       0.166000
     51 H10          3.6590    -2.2490     7.3710 ha         1 75H       0.118000
     52 H11          4.8940    -2.4660     9.4930 ha         1 75H       0.117000
     53 H12          6.5870    -1.2600    11.0160 hn         1 75H       0.208500
     54 H13          4.7250     2.3710    14.1810 hc         1 75H       0.031367
     55 H14          6.1020     3.0870    13.3320 hc         1 75H       0.031367
     56 H15          6.0740     3.0520    15.1000 hc         1 75H       0.031367
     57 H16          7.4270     2.3490    16.3810 h1         1 75H       0.053200
     58 H17          8.3390     0.9330    16.9230 h1         1 75H       0.053200
     59 H18          5.4680    -0.8840    18.3560 hc         1 75H       0.019533
     60 H19          7.1680    -1.0000    17.8790 hc         1 75H       0.019533
     61 H20          5.8970    -1.0660    16.6500 hc         1 75H       0.019533
     62 H21          6.4980     2.6110    18.7230 hc         1 75H       0.019533
     63 H22          5.7090     1.2310    19.5000 hc         1 75H       0.019533
     64 H23          7.4530     1.2030    19.2060 hc         1 75H       0.019533
     65 H24          4.3390     1.2810    17.5580 ho         1 75H       0.405000
     66 H25          7.2090    -3.1740    15.3030 ha         1 75H       0.119000
     67 H26          8.5740    -4.6580    16.7190 ha         1 75H       0.108500
     68 H27         10.5840    -3.7820    17.8470 ha         1 75H       0.107000
     69 H28         11.2360    -1.4240    17.5550 ha         1 75H       0.108500
     70 H29          9.8800     0.0660    16.1380 ha         1 75H       0.119000
@<TRIPOS>BOND
     1     1     2 1   
     2     1    42 1   
     3     1    43 1   
     4     1    44 1   
     5     2     3 1   
     6     3     4 ar  
     7     3     5 ar  
     8     4     8 ar  
     9     4    45 1   
    10     5     6 ar  
    11     5    46 1   
    12     6     7 ar  
    13     6    47 1   
    14     7     8 ar  
    15     7    12 ar  
    16     8     9 ar  
    17     9    10 ar  
    18    10    11 ar  
    19    10    48 1   
    20    11    12 ar  
    21    11    49 1   
    22    12    13 1   
    23    13    14 1   
    24    14    15 ar  
    25    14    18 ar  
    26    15    16 ar  
    27    15    17 1   
    28    16    20 ar  
    29    16    50 1   
    30    18    19 ar  
    31    18    51 1   
    32    19    20 ar  
    33    19    52 1   
    34    20    21 1   
    35    21    22 1   
    36    21    53 1   
    37    22    23 2   
    38    22    24 1   
    39    24    25 1   
    40    24    27 2   
    41    25    26 2   
    42    25    35 1   
    43    27    28 1   
    44    27    29 1   
    45    28    54 1   
    46    28    55 1   
    47    28    56 1   
    48    29    30 1   
    49    29    35 1   
    50    30    31 1   
    51    30    57 1   
    52    30    58 1   
    53    31    32 1   
    54    31    33 1   
    55    31    34 1   
    56    32    59 1   
    57    32    60 1   
    58    32    61 1   
    59    33    62 1   
    60    33    63 1   
    61    33    64 1   
    62    34    65 1   
    63    35    36 1   
    64    36    37 ar  
    65    36    41 ar  
    66    37    38 ar  
    67    37    66 1   
    68    38    39 ar  
    69    38    67 1   
    70    39    40 ar  
    71    39    68 1   
    72    40    41 ar  
    73    40    69 1   
    74    41    70 1   
@<TRIPOS>SUBSTRUCTURE
     1 75H         1 TEMP              0 ****  ****    0 ROOT
