@<TRIPOS>MOLECULE
75J
   58    64     1     0     0
SMALL
bcc


@<TRIPOS>ATOM
      1 C1           0.0000     0.0000     0.0000 ca         1 75J      -0.114000
      2 C2           1.3800     0.0000     0.0000 ca         1 75J      -0.048000
      3 C3          -0.6950     0.0040     1.1960 ca         1 75J      -0.059000
      4 C4          -0.0130     0.0100     2.4010 ca         1 75J      -0.162000
      5 C5           1.3670     0.0110     2.4150 ca         1 75J      -0.038000
      6 C6           2.0750     0.0000     1.2120 ca         1 75J       0.059000
      7 C11         -0.6520     0.4600     6.9000 c2         1 75J      -0.101000
      8 C12         -0.2400    -0.8050     6.5060 c2         1 75J      -0.409000
      9 C13          0.6800    -0.9390     5.4480 c2         1 75J       0.276000
     10 N15          1.0570     2.6170     4.7720 n2         1 75J      -0.052000
     11 C16          0.3950     3.5460     5.4780 c2         1 75J      -0.107000
     12 C17         -0.3610     2.9220     6.3980 c2         1 75J      -0.340000
     13 C23         -3.5090    -0.1640     9.7820 c3         1 75J      -0.086000
     14 C24         -4.3340    -0.7280    10.9400 c3         1 75J      -0.165000
     15 C26         -4.5890    -2.8480     9.6490 c3         1 75J      -0.134000
     16 C27         -3.7550    -2.2230     8.5280 c3         1 75J      -0.140000
     17 C7           2.1080     0.0170     3.7270 c3         1 75J      -0.257000
     18 N8           1.1520     0.1590     4.8270 n          1 75J       0.222000
     19 C9           0.7410     1.4200     5.2180 c2         1 75J      -0.349000
     20 N10         -0.1490     1.5730     6.2400 na         1 75J       0.496000
     21 N18         -1.5110     0.3070     7.9120 n2         1 75J      -0.119000
     22 C19         -1.6690    -0.9730     8.1780 c2         1 75J      -0.211000
     23 N20         -0.8990    -1.7060     7.3310 na         1 75J       0.528000
     24 N22         -2.8070    -1.2590     9.1000 nh         1 75J       0.002000
     25 C25         -5.3420    -1.7440    10.3950 c3         1 75J      -0.138000
     26 N28         -3.4430    -1.3880    11.9020 nz         1 75J       0.289000
     27 C29         -1.8010    -3.7140     6.3780 c2         1 75J      -0.194000
     28 C30         -2.5940    -4.1530     5.6320 c1         1 75J      -0.089000
     29 C31         -3.5080    -5.1430     4.9360 c3         1 75J       0.054000
     30 C32          3.5060    -0.0000     1.2200 c1         1 75J      -0.079000
     31 N33          4.7550    -0.1000     1.0930 n1         1 75J      -0.072000
     32 H1          -0.5420    -0.0040    -0.9380 ha         1 75J       0.113000
     33 H2           1.9210     0.0020    -0.9380 ha         1 75J       0.118000
     34 H3          -1.7770     0.0380     1.1940 ha         1 75J       0.100000
     35 H4          -0.5620     0.0600     3.3330 ha         1 75J       0.091000
     36 H5           0.4830     4.6090     5.2870 h4         1 75J       0.158000
     37 H6          -0.9520     3.5650     7.0390 h4         1 75J       0.178000
     38 H7          -0.7640    -3.5020     6.2650 DU         1 75J       0.220000
     39 H8           0.1240    -3.4720     7.7940 h1         1 75J       0.199000
     40 H9          -2.7240     0.4650    10.1850 h1         1 75J       0.104000
     41 H10         -4.1560     0.4330     9.1500 h1         1 75J       0.104000
     42 H11         -4.8670     0.0790    11.4290 hx         1 75J       0.149000
     43 H12         -3.9440    -3.4650    10.2640 hc         1 75J       0.073000
     44 H13         -5.3600    -3.4680     9.2080 hc         1 75J       0.073000
     45 H14         -4.4240    -1.8210     7.7770 h1         1 75J       0.095500
     46 H15         -3.1370    -2.9920     8.0810 h1         1 75J       0.095500
     47 H16          2.7190     0.9050     3.8380 h1         1 75J       0.187500
     48 H17          1.4380    -0.1250     4.5660 h1         1 75J       0.187500
     49 H18         -5.8410    -2.2240    11.2290 hc         1 75J       0.095000
     50 H19         -6.0760    -1.2220     9.7930 hc         1 75J       0.095000
     51 H20         -2.8140    -1.9940    11.4120 DU         1 75J       0.216500
     52 H21         -3.9870    -1.9240    12.5480 hn         1 75J       0.101000
     53 H23         -3.0530    -6.1260     4.9510 hc         1 75J       0.060667
     54 H24         -3.6620    -4.8330     3.9100 hc         1 75J       0.060667
     55 H25         -4.4610    -5.1790     5.4500 hc         1 75J       0.060667
     56 C21         -0.7870    -3.1670     7.2950 c3         1 75J      -0.277000
     57 H283        -3.1930    -2.2940    11.5570 DU         1 75J       0.216500
     58 O14          1.0480    -2.0470     5.0960 o          1 75J      -0.342000
@<TRIPOS>BOND
     1     1     2 1   
     2     1     3 1   
     3     1    32 1   
     4     2     6 1   
     5     2    33 1   
     6     3     4 1   
     7     3    34 1   
     8     4     5 1   
     9     4    35 1   
    10     5     6 1   
    11     5    17 1   
    12     6    30 1   
    13     7     8 1   
    14     7    20 1   
    15     7    21 1   
    16     8     9 1   
    17     8    23 1   
    18     9    18 1   
    19     9    58 1   
    20    10    11 1   
    21    10    19 1   
    22    11    12 1   
    23    11    36 1   
    24    12    20 1   
    25    12    37 1   
    26    13    14 1   
    27    13    24 1   
    28    13    40 1   
    29    13    41 1   
    30    14    25 1   
    31    14    26 1   
    32    14    42 1   
    33    15    16 1   
    34    15    25 1   
    35    15    43 1   
    36    15    44 1   
    37    16    24 1   
    38    16    45 1   
    39    16    46 1   
    40    17    18 1   
    41    17    47 1   
    42    17    48 1   
    43    18    19 1   
    44    19    20 1   
    45    21    22 1   
    46    22    23 1   
    47    22    24 1   
    48    23    56 1   
    49    25    49 1   
    50    25    50 1   
    51    26    51 1   
    52    26    52 1   
    53    26    57 1   
    54    27    28 1   
    55    27    38 1   
    56    27    56 1   
    57    28    29 1   
    58    29    53 1   
    59    29    54 1   
    60    29    55 1   
    61    30    31 1   
    62    38    56 1   
    63    39    56 1   
    64    51    57 1   
@<TRIPOS>SUBSTRUCTURE
     1 75J         1 TEMP              0 ****  ****    0 ROOT
