@<TRIPOS>MOLECULE
molecule
   58    62     1     0     0
SMALL
bcc


@<TRIPOS>ATOM
      1 C1           0.0000     0.0000     0.0000 ca         1 75J      -0.146000
      2 C2           1.3800     0.0000     0.0000 ca         1 75J      -0.069000
      3 C3          -0.6950     0.0040     1.1960 ca         1 75J      -0.088000
      4 C4          -0.0130     0.0100     2.4010 ca         1 75J      -0.174000
      5 C5           1.3670     0.0110     2.4150 ca         1 75J      -0.045300
      6 C6           2.0750     0.0000     1.2120 ca         1 75J       0.013000
      7 C11         -0.6520     0.4600     6.9000 cc         1 75J       0.503800
      8 C12         -0.2400    -0.8050     6.5060 cd         1 75J      -0.334200
      9 C13          0.6800    -0.9390     5.4480 c          1 75J       0.719100
     10 N15          1.0570     2.6170     4.7720 nd         1 75J      -0.664000
     11 C16          0.3950     3.5460     5.4780 cd         1 75J       0.348200
     12 C17         -0.3610     2.9220     6.3980 cc         1 75J      -0.252600
     13 C23         -3.5090    -0.1640     9.7820 c3         1 75J       0.185800
     14 C24         -4.3340    -0.7280    10.9400 c3         1 75J       0.100500
     15 C26         -4.5890    -2.8480     9.6490 c3         1 75J      -0.122400
     16 C27         -3.7550    -2.2230     8.5280 c3         1 75J       0.141800
     17 C7           2.1080     0.0170     3.7270 c3         1 75J      -0.115700
     18 N8           1.1520     0.1590     4.8270 n          1 75J      -0.403300
     19 C9           0.7410     1.4200     5.2180 cc         1 75J       0.461400
     20 N10         -0.1490     1.5730     6.2400 na         1 75J      -0.189700
     21 N18         -1.5110     0.3070     7.9120 nd         1 75J      -0.744000
     22 C19         -1.6690    -0.9730     8.1780 cc         1 75J       0.663400
     23 N20         -0.8990    -1.7060     7.3310 na         1 75J      -0.090900
     24 N22         -2.8070    -1.2590     9.1000 nh         1 75J      -0.773300
     25 C25         -5.3420    -1.7440    10.3950 c3         1 75J      -0.136400
     26 N28         -3.4430    -1.3880    11.9020 nz         1 75J      -0.922600
     27 C29         -1.8010    -3.7140     6.3780 c1         1 75J      -0.160100
     28 C30         -2.5940    -4.1530     5.6320 c1         1 75J      -0.068100
     29 C31         -3.5080    -5.1430     4.9360 c3         1 75J      -0.003000
     30 C32          3.5060    -0.0000     1.2200 cg         1 75J       0.217800
     31 N33          4.7550    -0.1000     1.0930 n1         1 75J      -0.353800
     32 H1          -0.5420    -0.0040    -0.9380 ha         1 75J       0.141000
     33 H2           1.9210     0.0020    -0.9380 ha         1 75J       0.150000
     34 H3          -1.7770     0.0380     1.1940 ha         1 75J       0.130000
     35 H4          -0.5620     0.0600     3.3330 ha         1 75J       0.114000
     36 H5           0.4830     4.6090     5.2870 h4         1 75J       0.067100
     37 H6          -0.9520     3.5650     7.0390 h4         1 75J       0.205000
     38 H7          -0.7640    -3.5020     6.2650 h1         1 75J       0.204200
     39 H8           0.1240    -3.4720     7.7940 h1         1 75J       0.204200
     40 H9          -2.7240     0.4650    10.1850 h1         1 75J       0.100700
     41 H10         -4.1560     0.4330     9.1500 h1         1 75J       0.100700
     42 H11         -4.8670     0.0790    11.4290 hx         1 75J       0.152700
     43 H12         -3.9440    -3.4650    10.2640 hc         1 75J       0.064700
     44 H13         -5.3600    -3.4680     9.2080 hc         1 75J       0.064700
     45 H14         -4.4240    -1.8210     7.7770 h1         1 75J       0.084200
     46 H15         -3.1370    -2.9920     8.0810 h1         1 75J       0.084200
     47 H16          2.7190     0.9050     3.8380 h1         1 75J       0.225700
     48 H17          1.4380    -0.1250     4.5660 h1         1 75J       0.225700
     49 H18         -5.8410    -2.2240    11.2290 hc         1 75J       0.089700
     50 H19         -6.0760    -1.2220     9.7930 hc         1 75J       0.089700
     51 H20         -2.8140    -1.9940    11.4120 hn         1 75J       0.498133
     52 H21         -3.9870    -1.9240    12.5480 hn         1 75J       0.498133
     53 H23         -3.0530    -6.1260     4.9510 hc         1 75J       0.069367
     54 H24         -3.6620    -4.8330     3.9100 hc         1 75J       0.069367
     55 H25         -4.4610    -5.1790     5.4500 hc         1 75J       0.069367
     56 C21         -0.7870    -3.1670     7.2950 c3         1 75J      -0.146600
     57 H283        -3.1930    -2.2940    11.5570 hn         1 75J       0.498133
     58 O14          1.0480    -2.0470     5.0960 o          1 75J      -0.552500
@<TRIPOS>BOND
     1    26    14 1   
     2    25    14 1   
     3    25    15 1   
     4    13    14 1   
     5    13    24 1   
     6    16    15 1   
     7    16    24 1   
     8    29    28 1   
     9    24    22 1   
    10    28    27 3   
    11    27    56 1   
    12    56    23 1   
    13    22    23 1   
    14    22    21 2   
    15    23     8 1   
    16    21     7 1   
    17     8     7 2   
    18     8     9 1   
    19     7    20 1   
    20    58     9 2   
    21     9    18 1   
    22    20    12 1   
    23    20    19 1   
    24    12    11 2   
    25    18    19 1   
    26    18    17 1   
    27    19    10 2   
    28     4     3 ar  
    29     4     5 ar  
    30    17     5 1   
    31    11    10 1   
    32     3     1 ar  
    33     5     6 ar  
    34     1     2 ar  
    35     6     2 ar  
    36     6    30 1   
    37    30    31 3   
    38     1    32 1   
    39     2    33 1   
    40     3    34 1   
    41     4    35 1   
    42    11    36 1   
    43    12    37 1   
    44    56    38 1   
    45    56    39 1   
    46    13    40 1   
    47    13    41 1   
    48    14    42 1   
    49    15    43 1   
    50    15    44 1   
    51    16    45 1   
    52    16    46 1   
    53    17    47 1   
    54    17    48 1   
    55    25    49 1   
    56    25    50 1   
    57    26    51 1   
    58    26    52 1   
    59    29    53 1   
    60    29    54 1   
    61    29    55 1   
    62    57    26 1   
@<TRIPOS>SUBSTRUCTURE
     1 75J         1 TEMP              0 ****  ****    0 ROOT
