@<TRIPOS>MOLECULE
molecule
   69    74     1     0     0
SMALL
bcc


@<TRIPOS>ATOM
      1 C2           0.0000     0.0000     0.0000 cc         1 75L       0.923100
      2 C4          -0.0360    -0.0150     2.3710 cd         1 75L       0.598200
      3 N1           1.3220     0.0000     0.0000 nd         1 75L      -0.754100
      4 C12         -2.0640     0.2150    -1.3360 c3         1 75L       0.228800
      5 C13         -2.8180    -0.2650    -0.1060 c3         1 75L      -0.138400
      6 C14         -2.1590     0.1920     1.1790 c3         1 75L       0.217800
      7 C16          3.5560    -1.5440     4.3150 c1         1 75L      -0.242100
      8 C17          3.8990    -2.6650     4.3840 c1         1 75L       0.001900
      9 C18          4.2940    -3.8790     4.6030 c3         1 75L      -0.093000
     10 N3          -0.7070     0.0490     1.1600 na         1 75L      -0.697300
     11 C20         -0.8380    -0.1680     6.2920 c3         1 75L       0.164800
     12 C22         -0.1010    -1.2820     8.4010 c3         1 75L      -0.155400
     13 C23          1.3290    -1.2890     7.8540 c3         1 75L      -0.091400
     14 C6           2.0320     0.0000     1.1360 c          1 75L       0.759100
     15 C5           1.3520    -0.0380     2.3720 cc         1 75L      -0.309200
     16 N7          -0.4410    -0.0620     3.6430 nd         1 75L      -0.756000
     17 C8           0.6040    -0.1130     4.4430 cc         1 75L       0.594400
     18 N9           1.7430    -0.1000     3.6990 na         1 75L      -0.127900
     19 O10          3.2530     0.0310     1.1040 o          1 75L      -0.573100
     20 N11         -0.6400    -0.0560    -1.2090 nh         1 75L      -0.774600
     21 N19          0.5520    -0.1690     5.8180 nh         1 75L      -0.764300
     22 C21         -0.8560    -0.0840     7.8210 c3         1 75L       0.079500
     23 C24          1.2840    -1.3370     6.3250 c3         1 75L       0.128800
     24 N25         -0.2070     1.1610     8.2520 nz         1 75L      -0.829600
     25 C26          0.1300    -0.3970    -2.4080 c3         1 75L       0.207500
     26 C27          0.1140    -1.8920    -2.6070 ca         1 75L       0.651300
     27 N28         -0.8460    -2.4180    -3.3290 nb         1 75L      -0.733000
     28 C29          1.1170    -3.9270    -2.1830 ca         1 75L       0.531600
     29 N30          1.0720    -2.6160    -2.0490 nb         1 75L      -0.724000
     30 C31          0.1120    -4.5530    -2.9420 ca         1 75L      -0.280600
     31 C32         -0.8930    -3.7410    -3.5270 ca         1 75L       0.421600
     32 C33         -1.9030    -4.3440    -4.2910 ca         1 75L      -0.141300
     33 C34         -1.9020    -5.6950    -4.4600 ca         1 75L      -0.216000
     34 C35         -0.9140    -6.4920    -3.8850 ca         1 75L      -0.024000
     35 C36          0.0810    -5.9420    -3.1360 ca         1 75L      -0.377000
     36 C37          2.2130    -4.7320    -1.5370 c3         1 75L      -0.167400
     37 H1          -1.8560     1.2760    -1.4020 h1         1 75L       0.080200
     38 H2          -2.4660    -0.2630    -2.2210 h1         1 75L       0.080200
     39 H3          -3.8590    -0.0180    -0.2750 hc         1 75L       0.065700
     40 H4          -3.0130    -1.3310    -0.1300 hc         1 75L       0.065700
     41 H5          -2.4120     1.2310     1.0060 h1         1 75L       0.062700
     42 H6          -2.8120    -0.0330     2.0130 h1         1 75L       0.062700
     43 H7           3.8630     0.2730     3.5370 h1         1 75L       0.102700
     44 H8           3.1870     0.1420     5.2470 h1         1 75L       0.102700
     45 H9           3.7080    -4.7850     4.5040 hc         1 75L       0.067367
     46 H10          5.2460    -4.2320     4.2260 hc         1 75L       0.067367
     47 H11          4.6520    -4.2150     5.5680 hc         1 75L       0.067367
     48 H12         -1.0630    -1.2180     6.1520 h1         1 75L       0.096200
     49 H13         -1.5400     0.5560     5.8970 h1         1 75L       0.096200
     50 H14         -0.6630    -2.1810     8.1800 hc         1 75L       0.088200
     51 H15         -0.0590    -1.3380     9.4830 hc         1 75L       0.088200
     52 H16          1.6750    -0.2900     8.0900 hc         1 75L       0.084700
     53 H17          1.6450    -2.3100     8.0340 hc         1 75L       0.084700
     54 H18         -1.8820    -0.1010     8.1700 hx         1 75L       0.108700
     55 H19          2.2050    -0.8140     6.0990 h1         1 75L       0.110200
     56 H20          0.6400    -2.0940     5.8940 h1         1 75L       0.110200
     57 H21          0.0090     0.9950     9.2150 hn         1 75L       0.469800
     58 H22          0.6210     1.0880     7.6930 hn         1 75L       0.469800
     59 H24          1.2030    -0.2580    -2.3490 h1         1 75L       0.105700
     60 H25         -0.3160     0.1110    -3.2550 h1         1 75L       0.105700
     61 H26         -2.3250    -4.2540    -5.2850 ha         1 75L       0.190000
     62 H27         -2.6470    -6.3450    -4.9040 ha         1 75L       0.152000
     63 H28         -0.7920    -7.5610    -3.7570 ha         1 75L       0.173000
     64 H29         -0.9000    -5.9120    -2.6770 ha         1 75L       0.247000
     65 H30          2.8730    -4.2000    -0.8620 hc         1 75L       0.081033
     66 H31          2.3690    -5.5940    -2.1750 hc         1 75L       0.081033
     67 H32          1.6250    -5.3890    -0.9070 hc         1 75L       0.081033
     68 C15          3.1180    -0.1430     4.2040 c3         1 75L       0.141400
     69 H253        -0.8410     1.9060     8.4620 hn         1 75L       0.469800
@<TRIPOS>BOND
     1    24    22 1
     2    11    22 1
     3    11    21 1
     4    12    22 1
     5    12    13 1
     6     9     8 1
     7    23    21 1
     8    23    13 1
     9     8     7 3
    10    21    17 1
    11     7    68 1
    12    68    18 1
    13    17    18 1
    14    17    16 2
    15    18    15 1
    16    16     2 1
    17    15     2 2
    18    15    14 1
    19     2    10 1
    20    19    14 2
    21    14     3 1
    22    10     6 1
    23    10     1 1
    24     3     1 2
    25     6     5 1
    26     1    20 1
    27     5     4 1
    28    20     4 1
    29    20    25 1
    30    25    26 1
    31    36    28 1
    32    29    26 ar
    33    29    28 ar
    34    26    27 ar
    35    28    30 ar
    36    27    31 ar
    37    30    31 ar
    38    30    35 ar
    39    31    32 ar
    40    35    34 ar
    41    32    33 ar
    42    34    33 ar
    43     4    37 1
    44     4    38 1
    45     5    39 1
    46     5    40 1
    47     6    41 1
    48     6    42 1
    49    68    43 1
    50    68    44 1
    51     9    45 1
    52     9    46 1
    53     9    47 1
    54    11    48 1
    55    11    49 1
    56    12    50 1
    57    12    51 1
    58    13    52 1
    59    13    53 1
    60    22    54 1
    61    23    55 1
    62    23    56 1
    63    24    57 1
    64    24    58 1
    65    25    59 1
    66    25    60 1
    67    32    61 1
    68    33    62 1
    69    34    63 1
    70    35    64 1
    71    36    65 1
    72    36    66 1
    73    36    67 1
    74    69    24 1
@<TRIPOS>SUBSTRUCTURE
     1 75L         1 TEMP              0 ****  ****    0 ROOT
