@<TRIPOS>MOLECULE
75M
   58    63     1     0     0
SMALL
bcc


@<TRIPOS>ATOM
      1 C4           0.0000     0.0000     0.0000 c2         1 75M      -0.110000
      2 C2           2.0850    -0.0010    -1.2230 c2         1 75M       0.291000
      3 N1           1.3990    -0.0020    -2.3840 n          1 75M       0.223000
      4 C6           0.6410     0.0030     2.0750 c2         1 75M      -0.244000
      5 C3           1.3880     0.0000     0.0000 c2         1 75M      -0.360000
      6 N5          -0.4040     0.0060     1.2730 n2         1 75M      -0.101000
      7 N7           1.7800     0.0000     1.3320 na         1 75M       0.443000
      8 N8          -0.6760    -0.0010    -1.2120 na         1 75M       0.464000
      9 C9           0.0170    -0.0010    -2.3870 c2         1 75M      -0.254000
     10 N10         -0.8520    -0.0030    -3.3730 n2         1 75M      -0.094000
     11 C11         -2.0960    -0.0020    -2.8720 c2         1 75M      -0.086000
     12 C12         -2.0130    -0.0010    -1.5290 c2         1 75M      -0.351000
     13 O13          3.3040    -0.0020    -1.2330 o          1 75M      -0.422000
     14 C14          3.1540    -0.0030     1.8390 c3         1 75M      -0.024000
     15 C15          3.6100    -1.3910     2.0100 c1         1 75M      -0.297000
     16 C16          3.9680    -2.5250     1.9320 c1         1 75M      -0.099000
     17 C17          4.4500    -4.1090     1.6460 c3         1 75M       0.117000
     18 N18          0.5880     0.0050     3.4500 nh         1 75M       0.047000
     19 C19         -0.8020     0.0080     3.9240 c3         1 75M      -0.080000
     20 C20         -0.8230     0.1560     5.4460 c3         1 75M      -0.117000
     21 C21         -0.0510    -1.0060     6.0790 c3         1 75M      -0.559000
     22 C22          1.3790    -1.0150     5.5320 c3         1 75M      -0.077000
     23 C23          1.3360    -1.1300     4.0070 c3         1 75M       0.079000
     24 N24         -0.1910     1.4280     5.8240 nz         1 75M       0.291000
     25 C25          2.1270    -0.0030    -3.6560 c3         1 75M      -0.060000
     26 C26          2.3770    -1.4240    -4.0910 ca         1 75M      -0.108000
     27 C27          1.4490    -2.0740    -4.8850 ca         1 75M      -0.083000
     28 C28          1.6710    -3.3760    -5.2880 ca         1 75M      -0.078000
     29 C29          2.8360    -4.0350    -4.8910 ca         1 75M       0.047000
     30 C30          3.7680    -3.3740    -4.0890 ca         1 75M      -0.078000
     31 C31          3.5350    -2.0710    -3.6980 ca         1 75M      -0.083000
     32 C32          3.0730    -5.3860    -5.3040 c1         1 75M      -0.111000
     33 N33          3.2410    -6.4610    -5.6310 n1         1 75M      -0.037000
     34 H1          -3.0140    -0.0000    -3.4470 h4         1 75M       0.152000
     35 H2          -2.8360     0.0000    -0.8240 h4         1 75M       0.166000
     36 H3           3.3120     0.8730     2.4560 h1         1 75M       0.133500
     37 H4           3.8460     0.0120     1.0060 h1         1 75M       0.133500
     38 H5           3.5810    -4.7560     1.6430 hc         1 75M       0.049667
     39 H6           5.1330    -4.4250     2.4250 hc         1 75M       0.049667
     40 H7           4.9460    -4.1670     0.6850 hc         1 75M       0.049667
     41 H8          -1.3030    -0.8740     3.5450 h1         1 75M       0.106500
     42 H9          -1.2990     0.8920     3.5430 h1         1 75M       0.106500
     43 H10         -1.8480     0.1390     5.7950 hx         1 75M       0.122000
     44 H11         -0.1690    -0.9600     7.1550 hc         1 75M       0.150000
     45 H12          0.9980    -0.9060     5.8290 hc         1 75M       0.150000
     46 H13          1.3500    -1.2710     4.4800 hc         1 75M       0.080000
     47 H14          1.9530    -1.7630     6.0660 hc         1 75M       0.080000
     48 H15          0.8820    -2.0520     3.6620 h1         1 75M       0.099500
     49 H16          2.3590    -1.0820     3.6540 h1         1 75M       0.099500
     50 H17         -0.2060     1.5250     6.8200 DU         1 75M       0.179500
     51 H18         -0.6940     2.1870     5.4080 hn         1 75M       0.122000
     52 H20          3.1780     0.1830    -3.4710 h1         1 75M       0.104000
     53 H21          1.7310     0.7740    -4.2990 h1         1 75M       0.104000
     54 H22          0.5600    -1.5520    -5.2170 ha         1 75M       0.129500
     55 H23          0.9490    -3.8780    -5.9190 ha         1 75M       0.117500
     56 H24          4.6760    -3.8790    -3.7850 ha         1 75M       0.117500
     57 H25          4.2630    -1.5540    -3.0860 ha         1 75M       0.129500
     58 H243         0.2440     1.3310     6.7200 DU         1 75M       0.179500
@<TRIPOS>BOND
     1     1     5 1   
     2     1     6 1   
     3     1     8 1   
     4     2     3 1   
     5     2     5 1   
     6     2    13 1   
     7     3     9 1   
     8     3    25 1   
     9     4     6 1   
    10     4     7 1   
    11     4    18 1   
    12     5     7 1   
    13     7    14 1   
    14     8     9 1   
    15     8    12 1   
    16     9    10 1   
    17    10    11 1   
    18    11    12 1   
    19    11    34 1   
    20    12    35 1   
    21    14    15 1   
    22    14    36 1   
    23    14    37 1   
    24    15    16 1   
    25    16    17 1   
    26    17    38 1   
    27    17    39 1   
    28    17    40 1   
    29    18    19 1   
    30    18    23 1   
    31    19    20 1   
    32    19    41 1   
    33    19    42 1   
    34    20    21 1   
    35    20    24 1   
    36    20    43 1   
    37    21    22 1   
    38    21    44 1   
    39    21    45 1   
    40    22    23 1   
    41    22    46 1   
    42    22    47 1   
    43    23    48 1   
    44    23    49 1   
    45    24    50 1   
    46    24    51 1   
    47    24    58 1   
    48    25    26 1   
    49    25    52 1   
    50    25    53 1   
    51    26    27 1   
    52    26    31 1   
    53    27    28 1   
    54    27    54 1   
    55    28    29 1   
    56    28    55 1   
    57    29    30 1   
    58    29    32 1   
    59    30    31 1   
    60    30    56 1   
    61    31    57 1   
    62    32    33 1   
    63    50    58 1   
@<TRIPOS>SUBSTRUCTURE
     1 75M         1 TEMP              0 ****  ****    0 ROOT
