@<TRIPOS>MOLECULE
molecule
   58    62     1     0     0
SMALL
bcc


@<TRIPOS>ATOM
      1 C4           0.0000     0.0000     0.0000 cc         1 75M       0.494800
      2 C2           2.0850    -0.0010    -1.2230 c          1 75M       0.750100
      3 N1           1.3990    -0.0020    -2.3840 n          1 75M      -0.400300
      4 C6           0.6410     0.0030     2.0750 cc         1 75M       0.598400
      5 C3           1.3880     0.0000     0.0000 cd         1 75M      -0.292200
      6 N5          -0.4040     0.0060     1.2730 nd         1 75M      -0.728000
      7 N7           1.7800     0.0000     1.3320 na         1 75M      -0.127900
      8 N8          -0.6760    -0.0010    -1.2120 na         1 75M      -0.206700
      9 C9           0.0170    -0.0010    -2.3870 cc         1 75M       0.542400
     10 N10         -0.8520    -0.0030    -3.3730 nd         1 75M      -0.698000
     11 C11         -2.0960    -0.0020    -2.8720 cd         1 75M       0.362200
     12 C12         -2.0130    -0.0010    -1.5290 cc         1 75M      -0.263600
     13 O13          3.3040    -0.0020    -1.2330 o          1 75M      -0.639500
     14 C14          3.1540    -0.0030     1.8390 c3         1 75M       0.079400
     15 C15          3.6100    -1.3910     2.0100 c1         1 75M      -0.257100
     16 C16          3.9680    -2.5250     1.9320 c1         1 75M      -0.077100
     17 C17          4.4500    -4.1090     1.6460 c3         1 75M       0.040000
     18 N18          0.5880     0.0050     3.4500 nh         1 75M      -0.675300
     19 C19         -0.8020     0.0080     3.9240 c3         1 75M       0.181800
     20 C20         -0.8230     0.1560     5.4460 c3         1 75M       0.164500
     21 C21         -0.0510    -1.0060     6.0790 c3         1 75M      -0.521400
     22 C22          1.3790    -1.0150     5.5320 c3         1 75M      -0.231400
     23 C23          1.3360    -1.1300     4.0070 c3         1 75M       0.149800
     24 N24         -0.1910     1.4280     5.8240 nz         1 75M      -1.035600
     25 C25          2.1270    -0.0030    -3.6560 c3         1 75M       0.148300
     26 C26          2.3770    -1.4240    -4.0910 ca         1 75M      -0.108300
     27 C27          1.4490    -2.0740    -4.8850 ca         1 75M      -0.108500
     28 C28          1.6710    -3.3760    -5.2880 ca         1 75M      -0.099000
     29 C29          2.8360    -4.0350    -4.8910 ca         1 75M      -0.002000
     30 C30          3.7680    -3.3740    -4.0890 ca         1 75M      -0.099000
     31 C31          3.5350    -2.0710    -3.6980 ca         1 75M      -0.108500
     32 C32          3.0730    -5.3860    -5.3040 cg         1 75M       0.229800
     33 N33          3.2410    -6.4610    -5.6310 n1         1 75M      -0.345800
     34 H1          -3.0140    -0.0000    -3.4470 h4         1 75M       0.061100
     35 H2          -2.8360     0.0000    -0.8240 h4         1 75M       0.191000
     36 H3           3.3120     0.8730     2.4560 h1         1 75M       0.130700
     37 H4           3.8460     0.0120     1.0060 h1         1 75M       0.130700
     38 H5           3.5810    -4.7560     1.6430 hc         1 75M       0.064700
     39 H6           5.1330    -4.4250     2.4250 hc         1 75M       0.064700
     40 H7           4.9460    -4.1670     0.6850 hc         1 75M       0.064700
     41 H8          -1.3030    -0.8740     3.5450 h1         1 75M       0.102200
     42 H9          -1.2990     0.8920     3.5430 h1         1 75M       0.102200
     43 H10         -1.8480     0.1390     5.7950 hx         1 75M       0.108700
     44 H11         -0.1690    -0.9600     7.1550 hc         1 75M       0.161700
     45 H12          0.9980    -0.9060     5.8290 hc         1 75M       0.161700
     46 H13          1.3500    -1.2710     4.4800 hc         1 75M       0.192200
     47 H14          1.9530    -1.7630     6.0660 hc         1 75M       0.192200
     48 H15          0.8820    -2.0520     3.6620 h1         1 75M       0.124200
     49 H16          2.3590    -1.0820     3.6540 h1         1 75M       0.124200
     50 H17         -0.2060     1.5250     6.8200 hn         1 75M       0.504467
     51 H18         -0.6940     2.1870     5.4080 hn         1 75M       0.504467
     52 H20          3.1780     0.1830    -3.4710 h1         1 75M       0.095200
     53 H21          1.7310     0.7740    -4.2990 h1         1 75M       0.095200
     54 H22          0.5600    -1.5520    -5.2170 ha         1 75M       0.155000
     55 H23          0.9490    -3.8780    -5.9190 ha         1 75M       0.147500
     56 H24          4.6760    -3.8790    -3.7850 ha         1 75M       0.147500
     57 H25          4.2630    -1.5540    -3.0860 ha         1 75M       0.155000
     58 H243         0.2440     1.3310     6.7200 hn         1 75M       0.504467
@<TRIPOS>BOND
     1    24    20 1
     2    21    20 1
     3    21    22 1
     4    19    20 1
     5    19    18 1
     6    17    16 1
     7    23    22 1
     8    23    18 1
     9    16    15 3
    10    18     4 1
    11    15    14 1
    12    14     7 1
    13     4     7 1
    14     4     6 2
    15     7     5 1
    16     6     1 1
    17     5     1 2
    18     5     2 1
    19     1     8 1
    20    13     2 2
    21     2     3 1
    22     8    12 1
    23     8     9 1
    24     3     9 1
    25     3    25 1
    26    12    11 2
    27     9    10 2
    28    31    30 ar
    29    31    26 ar
    30    25    26 1
    31    11    10 1
    32    30    29 ar
    33    26    27 ar
    34    29    28 ar
    35    29    32 1
    36    27    28 ar
    37    32    33 3
    38    11    34 1
    39    12    35 1
    40    14    36 1
    41    14    37 1
    42    17    38 1
    43    17    39 1
    44    17    40 1
    45    19    41 1
    46    19    42 1
    47    20    43 1
    48    21    44 1
    49    21    45 1
    50    22    46 1
    51    22    47 1
    52    23    48 1
    53    23    49 1
    54    24    50 1
    55    24    51 1
    56    25    52 1
    57    25    53 1
    58    27    54 1
    59    28    55 1
    60    30    56 1
    61    31    57 1
    62    58    24 1
@<TRIPOS>SUBSTRUCTURE
     1 75M         1 TEMP              0 ****  ****    0 ROOT
