@<TRIPOS>MOLECULE
molecule
   64    69     1     0     0
SMALL
bcc


@<TRIPOS>ATOM
      1 C1           5.5720    -4.6330     2.8270 c1         1 75N      -0.060100
      2 C2           5.7590    -4.3500     3.9510 c1         1 75N      -0.253100
      3 C3           0.0000     0.0000     0.0000 ca         1 75N      -0.122000
      4 C4           1.3940     0.0000     0.0000 ca         1 75N      -0.105000
      5 C5          -0.7000     0.0000     1.1680 ca         1 75N      -0.099000
      6 C6           2.0980     0.0000     1.1660 ca         1 75N      -0.172300
      7 C7          -0.0090    -0.0050     2.3880 ca         1 75N      -0.269600
      8 C8           1.4100     0.0000     2.3900 ca         1 75N       0.433600
      9 C9           3.7720    -3.3330     6.3820 cc         1 75N      -0.269200
     10 C10         -0.6750    -0.0060     3.6270 ca         1 75N       0.484600
     11 C11          2.8530    -3.9980     7.1820 cd         1 75N       0.488800
     12 C12          1.3740     0.0010     4.6870 ca         1 75N       0.621300
     13 C13          4.4850    -5.3790     6.7940 cc         1 75N       0.521400
     14 C14          3.5220    -2.0040     5.9900 c          1 75N       0.572100
     15 C15          1.4770    -2.0490     7.1920 cc         1 75N       0.560400
     16 C16          6.4930    -8.1750     5.4950 c3         1 75N      -0.154400
     17 C17          5.8680    -9.3030     6.3210 c3         1 75N      -0.215400
     18 C18          5.5260    -6.9890     5.4450 c3         1 75N      -0.190200
     19 C19          0.6320    -3.7200     8.3550 cc         1 75N      -0.253600
     20 C20          4.6050    -7.5770     7.6080 c3         1 75N      -0.279200
     21 C21         -0.2040    -2.6680     8.4160 cd         1 75N       0.352200
     22 C22          5.5440    -8.7790     7.7220 c3         1 75N       0.192500
     23 C23          4.5570    -5.1770     1.5370 c3         1 75N       0.047000
     24 C24         -2.1800     0.0000     3.6940 c3         1 75N      -0.147400
     25 C26          2.1350    -0.0050     5.9890 c3         1 75N      -0.160300
     26 N27          2.0530     0.0010     3.5640 nb         1 75N      -0.719000
     27 N28          0.0500    -0.0100     4.7270 nb         1 75N      -0.682000
     28 N29          3.3270    -5.2280     7.4030 nd         1 75N      -0.659000
     29 N30          4.8080    -4.2280     6.1490 na         1 75N      -0.120900
     30 N31          1.7010    -3.3370     7.5820 na         1 75N      -0.209700
     31 N32          5.2480    -6.5230     6.8090 nh         1 75N      -0.002300
     32 N33          2.3930    -1.3880     6.3960 n          1 75N      -0.225300
     33 N34          0.3280    -1.6630     7.7020 nd         1 75N      -0.615000
     34 N35          6.7860    -8.3690     8.3930 nz         1 75N      -0.972600
     35 H1          -0.5420    -0.0000    -0.9380 ha         1 75N       0.139000
     36 H2           1.9360     0.0050    -0.9380 ha         1 75N       0.139000
     37 H3          -1.7840     0.0000     1.1500 ha         1 75N       0.143000
     38 H4           3.1810     0.0000     1.1460 ha         1 75N       0.152000
     39 H5           6.8280    -8.5780     4.5470 hc         1 75N       0.163200
     40 H6           5.7420    -7.4150     5.3160 hc         1 75N       0.163200
     41 H7           6.5040   -10.1780     6.2560 hc         1 75N       0.169200
     42 H8           5.8030    -8.9860     7.3550 hc         1 75N       0.169200
     43 H9           5.9220    -6.2430     4.7670 h1         1 75N       0.032700
     44 H10          5.4440    -6.5610     6.4370 h1         1 75N       0.032700
     45 H11          0.4830    -4.6800     8.8350 h4         1 75N       0.196000
     46 H12          5.1420    -6.7560     7.1490 h1         1 75N       0.102200
     47 H13          4.2880    -7.2850     8.6020 h1         1 75N       0.102200
     48 H14         -1.1480    -2.6350     8.9460 h4         1 75N       0.064100
     49 H15          5.0600    -9.5610     8.2950 hx         1 75N       0.161700
     50 H16          5.0660    -5.9540     0.9800 hc         1 75N       0.064033
     51 H17          4.3340    -4.3470     0.8780 hc         1 75N       0.064033
     52 H18          3.6350    -5.5720     1.9460 hc         1 75N       0.064033
     53 H19         -2.5470     0.9970     3.4810 hc         1 75N       0.063367
     54 H20         -2.5770    -0.6940     2.9630 hc         1 75N       0.063367
     55 H21         -2.4990    -0.2980     4.6860 hc         1 75N       0.063367
     56 H22          6.8310    -4.5770     5.7410 h1         1 75N       0.090200
     57 H23          6.2750    -2.9310     5.4080 h1         1 75N       0.090200
     58 H24          2.9490     0.7070     5.9340 h1         1 75N       0.175200
     59 H25          2.5340    -0.9960     6.1690 h1         1 75N       0.175200
     60 H26          7.4060    -9.1520     8.4560 hn         1 75N       0.429133
     61 H27          7.2230    -7.6390     7.8670 hn         1 75N       0.429133
     62 C25          6.0140    -3.9810     5.3530 c3         1 75N       0.138400
     63 H353         6.5740    -8.0360     9.3130 hn         1 75N       0.429133
     64 O36          4.3230    -1.4120     5.2880 o          1 75N      -0.585500
@<TRIPOS>BOND
     1    34    22 1
     2    17    22 1
     3    17    16 1
     4    20    22 1
     5    20    31 1
     6    23     1 1
     7    18    16 1
     8    18    31 1
     9     1     2 3
    10    31    13 1
    11     2    62 1
    12    62    29 1
    13    13    29 1
    14    13    28 2
    15    29     9 1
    16    28    11 1
    17     9    11 2
    18     9    14 1
    19    11    30 1
    20    64    14 2
    21    14    32 1
    22    30    19 1
    23    30    15 1
    24    32    15 1
    25    32    25 1
    26    19    21 2
    27    15    33 2
    28     6     4 ar
    29     6     8 ar
    30    26     8 ar
    31    26    12 ar
    32    25    12 1
    33     4     3 ar
    34     8     7 ar
    35    21    33 1
    36    12    27 ar
    37     3     5 ar
    38     7     5 ar
    39     7    10 ar
    40    27    10 ar
    41    10    24 1
    42     3    35 1
    43     4    36 1
    44     5    37 1
    45     6    38 1
    46    16    39 1
    47    16    40 1
    48    17    41 1
    49    17    42 1
    50    18    43 1
    51    18    44 1
    52    19    45 1
    53    20    46 1
    54    20    47 1
    55    21    48 1
    56    22    49 1
    57    23    50 1
    58    23    51 1
    59    23    52 1
    60    24    53 1
    61    24    54 1
    62    24    55 1
    63    62    56 1
    64    62    57 1
    65    25    58 1
    66    25    59 1
    67    34    60 1
    68    34    61 1
    69    63    34 1
@<TRIPOS>SUBSTRUCTURE
     1 75N         1 TEMP              0 ****  ****    0 ROOT
