@<TRIPOS>MOLECULE
75N
   64    69     1     0     0
SMALL
bcc


@<TRIPOS>ATOM
      1 C1           5.5720    -4.6330     2.8270 c1         1 75N      -0.058100
      2 C2           5.7590    -4.3500     3.9510 c1         1 75N      -0.270100
      3 C3           0.0000     0.0000     0.0000 ca         1 75N      -0.087000
      4 C4           1.3940     0.0000     0.0000 ca         1 75N      -0.077000
      5 C5          -0.7000     0.0000     1.1680 ca         1 75N      -0.075000
      6 C6           2.0980     0.0000     1.1660 ca         1 75N      -0.145300
      7 C7          -0.0090    -0.0050     2.3880 ca         1 75N      -0.255600
      8 C8           1.4100     0.0000     2.3900 ca         1 75N       0.385600
      9 C9           3.7720    -3.3330     6.3820 cc         1 75N      -0.421200
     10 C10         -0.6750    -0.0060     3.6270 ca         1 75N       0.425600
     11 C11          2.8530    -3.9980     7.1820 cd         1 75N       0.250800
     12 C12          1.3740     0.0010     4.6870 ca         1 75N       0.500300
     13 C13          4.4850    -5.3790     6.7940 cc         1 75N      -0.017600
     14 C14          3.5220    -2.0040     5.9900 c          1 75N       0.432100
     15 C15          1.4770    -2.0490     7.1920 cc         1 75N       0.095400
     16 C16          6.4930    -8.1750     5.4950 c3         1 75N      -0.102400
     17 C17          5.8680    -9.3030     6.3210 c3         1 75N      -0.062400
     18 C18          5.5260    -6.9890     5.4450 c3         1 75N      -0.183200
     19 C19          0.6320    -3.7200     8.3550 cc         1 75N      -0.434600
     20 C20          4.6050    -7.5770     7.6080 c3         1 75N      -0.230200
     21 C21         -0.2040    -2.6680     8.4160 cd         1 75N       0.364200
     22 C22          5.5440    -8.7790     7.7220 c3         1 75N       0.336500
     23 C23          4.5570    -5.1770     1.5370 c3         1 75N       0.219000
     24 C24         -2.1800     0.0000     3.6940 c3         1 75N      -0.048400
     25 C26          2.1350    -0.0050     5.9890 c3         1 75N      -0.074300
     26 N27          2.0530     0.0010     3.5640 nb         1 75N      -0.589000
     27 N28          0.0500    -0.0100     4.7270 nb         1 75N      -0.554000
     28 N29          3.3270    -5.2280     7.4030 nd         1 75N      -0.533000
     29 N30          4.8080    -4.2280     6.1490 na         1 75N       0.404100
     30 N31          1.7010    -3.3370     7.5820 na         1 75N       0.335300
     31 N32          5.2480    -6.5230     6.8090 nh         1 75N       1.386700
     32 N33          2.3930    -1.3880     6.3960 n          1 75N       0.616700
     33 N34          0.3280    -1.6630     7.7020 nd         1 75N      -0.550000
     34 N35          6.7860    -8.3690     8.3930 nz         1 75N      -0.268600
     35 H1          -0.5420    -0.0000    -0.9380 ha         1 75N       0.110000
     36 H2           1.9360     0.0050    -0.9380 ha         1 75N       0.108000
     37 H3          -1.7840     0.0000     1.1500 ha         1 75N       0.120000
     38 H4           3.1810     0.0000     1.1460 ha         1 75N       0.123000
     39 H5           6.8280    -8.5780     4.5470 hc         1 75N       0.060200
     40 H6           5.7420    -7.4150     5.3160 hc         1 75N       0.060200
     41 H7           6.5040   -10.1780     6.2560 hc         1 75N      -0.054300
     42 H8           5.8030    -8.9860     7.3550 hc         1 75N      -0.054300
     43 H9           5.9220    -6.2430     4.7670 h1         1 75N      -0.165300
     44 H10          5.4440    -6.5610     6.4370 h1         1 75N      -0.165300
     45 H11          0.4830    -4.6800     8.8350 h4         1 75N       0.167000
     46 H12          5.1420    -6.7560     7.1490 h1         1 75N      -0.173300
     47 H13          4.2880    -7.2850     8.6020 h1         1 75N      -0.173300
     48 H14         -1.1480    -2.6350     8.9460 h4         1 75N       0.015100
     49 H15          5.0600    -9.5610     8.2950 hx         1 75N       0.084700
     50 H16          5.0660    -5.9540     0.9800 hc         1 75N       0.007367
     51 H17          4.3340    -4.3470     0.8780 hc         1 75N       0.007367
     52 H18          3.6350    -5.5720     1.9460 hc         1 75N       0.007367
     53 H19         -2.5470     0.9970     3.4810 hc         1 75N       0.024367
     54 H20         -2.5770    -0.6940     2.9630 hc         1 75N       0.024367
     55 H21         -2.4990    -0.2980     4.6860 hc         1 75N       0.024367
     56 H22          6.8310    -4.5770     5.7410 h1         1 75N       0.051700
     57 H23          6.2750    -2.9310     5.4080 h1         1 75N       0.051700
     58 H24          2.9490     0.7070     5.9340 h1         1 75N      -0.060300
     59 H25          2.5340    -0.9960     6.1690 h1         1 75N      -0.060300
     60 H26          7.4060    -9.1520     8.4560 hn         1 75N       0.242800
     61 H27          7.2230    -7.6390     7.8670 hn         1 75N       0.242800
     62 C25          6.0140    -3.9810     5.3530 c3         1 75N       0.086400
     63 H353         6.5740    -8.0360     9.3130 hn         1 75N       0.242800
     64 O36          4.3230    -1.4120     5.2880 o          1 75N      -0.671500
@<TRIPOS>BOND
     1     1     2 3   
     2     1    23 1   
     3     2    62 1   
     4     3     4 ar  
     5     3     5 ar  
     6     3    35 1   
     7     4     6 ar  
     8     4    36 1   
     9     5     7 ar  
    10     5    37 1   
    11     6     8 ar  
    12     6    38 1   
    13     7     8 ar  
    14     7    10 ar  
    15     8    26 ar  
    16     9    11 2   
    17     9    14 1   
    18     9    29 1   
    19    10    24 1   
    20    10    27 ar  
    21    11    28 1   
    22    11    30 1   
    23    12    25 1   
    24    12    26 ar  
    25    12    27 ar  
    26    13    28 2   
    27    13    29 1   
    28    13    31 1   
    29    14    32 1   
    30    14    64 2   
    31    15    30 1   
    32    15    32 1   
    33    15    33 2   
    34    16    17 1   
    35    16    18 1   
    36    16    39 1   
    37    16    40 1   
    38    17    22 1   
    39    17    41 1   
    40    17    42 1   
    41    18    31 1   
    42    18    43 1   
    43    18    44 1   
    44    19    21 2   
    45    19    30 1   
    46    19    45 1   
    47    20    22 1   
    48    20    31 1   
    49    20    46 1   
    50    20    47 1   
    51    21    33 1   
    52    21    48 1   
    53    22    34 1   
    54    22    49 1   
    55    23    50 1   
    56    23    51 1   
    57    23    52 1   
    58    24    53 1   
    59    24    54 1   
    60    24    55 1   
    61    25    32 1   
    62    25    58 1   
    63    25    59 1   
    64    29    62 1   
    65    34    60 1   
    66    34    61 1   
    67    34    63 1   
    68    56    62 1   
    69    57    62 1   
@<TRIPOS>SUBSTRUCTURE
     1 75N         1 TEMP              0 ****  ****    0 ROOT
