@<TRIPOS>MOLECULE
75O
   39    41     1     0     0
SMALL
bcc


@<TRIPOS>ATOM
      1 N3           0.0000     0.0000     0.0000 na         1 75O       0.336600
      2 C4           7.4770     1.0410    -1.8770 ca         1 75O      -0.354300
      3 N2           7.6350    -1.0950    -0.8790 nb         1 75O      -0.733000
      4 C7           6.3450    -1.0940    -0.5960 ca         1 75O       0.668600
      5 C6           5.5420    -0.0010    -0.9410 cp         1 75O      -0.197300
      6 C9           4.0940    -0.0010    -0.6230 cp         1 75O      -0.093000
      7 C13          2.3290     0.0000     1.0180 ca         1 75O      -0.130000
      8 C8           6.6670    -3.2400     0.3680 c3         1 75O       0.250700
      9 C16          0.5680     0.0000    -2.1500 cc         1 75O      -0.130400
     10 C1          10.2460     1.0380    -2.3600 c3         1 75O       0.219100
     11 C2          10.3380    -1.3410    -1.4820 c3         1 75O       0.219100
     12 C3           8.2140    -0.0770    -1.4990 ca         1 75O       0.558200
     13 C5           6.1240     1.0880    -1.5960 ca         1 75O       0.025000
     14 C10          3.1570    -0.0010    -1.6490 ca         1 75O       0.013000
     15 C11          1.8010     0.0000    -1.3400 ca         1 75O      -0.073800
     16 C12          1.3810     0.0000     0.0000 ca         1 75O      -0.243200
     17 C14          3.6710     0.0010     0.7110 ca         1 75O       0.006400
     18 Cl1          4.8480     0.0010     1.9870 cl         1 75O      -0.081400
     19 C15         -0.4740     0.0000    -1.2680 cd         1 75O      -0.277100
     20 C17          0.4790     0.0000    -3.6150 c          1 75O       1.002800
     21 O2          -0.7280     0.0000    -4.2170 o          1 75O      -0.893800
     22 O3           1.4930     0.0010    -4.2860 o          1 75O      -0.893800
     23 H1          -0.5710     0.0000     0.8220 hn         1 75O       0.094700
     24 H2           7.9590     1.8690    -2.3830 ha         1 75O       0.119000
     25 H3           2.0110     0.0010     2.0540 ha         1 75O       0.096000
     26 H4           7.0920    -3.6510    -0.5390 h1         1 75O      -0.006967
     27 H5           6.1170    -4.0120     0.8920 h1         1 75O      -0.006967
     28 H6           7.4630    -2.8690     1.0040 h1         1 75O      -0.006967
     29 H7          10.0770     1.9050    -1.7340 h1         1 75O       0.001533
     30 H8          11.3100     0.8530    -2.4420 h1         1 75O       0.001533
     31 H9           9.8340     1.2190    -3.3460 h1         1 75O       0.001533
     32 H10         10.3200    -1.5300    -0.4150 h1         1 75O       0.001533
     33 H11          9.9170    -2.1910    -2.0060 h1         1 75O       0.001533
     34 H12         11.3610    -1.1890    -1.8050 h1         1 75O       0.001533
     35 H13          5.5280     1.9470    -1.8780 ha         1 75O       0.116000
     36 H14          3.4780    -0.1270    -2.6760 ha         1 75O       0.142000
     37 H15         -1.5220     0.0010    -1.5420 h4         1 75O       0.156000
     38 N1           9.5740    -0.1250    -1.7750 nh         1 75O      -0.501300
     39 O1           5.7940    -2.1580     0.0390 os         1 75O      -0.408100
@<TRIPOS>BOND
     1     1    16 1   
     2     1    19 1   
     3     1    23 1   
     4     2    12 ar  
     5     2    13 ar  
     6     2    24 1   
     7     3     4 ar  
     8     3    12 ar  
     9     4     5 ar  
    10     4    39 1   
    11     5     6 1   
    12     5    13 ar  
    13     6    14 ar  
    14     6    17 ar  
    15     7    16 ar  
    16     7    17 ar  
    17     7    25 1   
    18     8    26 1   
    19     8    27 1   
    20     8    28 1   
    21     8    39 1   
    22     9    15 1   
    23     9    19 2   
    24     9    20 1   
    25    10    29 1   
    26    10    30 1   
    27    10    31 1   
    28    10    38 1   
    29    11    32 1   
    30    11    33 1   
    31    11    34 1   
    32    11    38 1   
    33    12    38 1   
    34    13    35 1   
    35    14    15 ar  
    36    14    36 1   
    37    15    16 ar  
    38    17    18 1   
    39    19    37 1   
    40    20    21 1   
    41    20    22 1   
@<TRIPOS>SUBSTRUCTURE
     1 75O         1 TEMP              0 ****  ****    0 ROOT
