@<TRIPOS>MOLECULE
molecule
   71    74     1     0     0
SMALL
bcc


@<TRIPOS>ATOM
      1 C4           0.0000     0.0000     0.0000 ca         1 75P       0.515600
      2 C5           1.4160     0.0000     0.0000 ca         1 75P      -0.337600
      3 C6           2.0880     0.0000     1.2460 ca         1 75P       0.771200
      4 N1           1.3600     0.0000     2.3530 nb         1 75P      -0.824000
      5 N3          -0.6450    -0.0050     1.1780 nb         1 75P      -0.842000
      6 NBA         -2.2810    -1.2580    -5.6170 nz         1 75P      -0.808600
      7 CAZ         -2.6420    -0.0020    -4.9450 c3         1 75P       0.100800
      8 CAY         -2.0730    -0.0020    -3.5250 c3         1 75P       0.110400
      9 CAW          0.0210    -0.0020    -2.4000 ca         1 75P       0.134100
     10 CAC          1.4220    -0.0030    -2.3920 ca         1 75P       0.091100
     11 OAB          2.1000    -0.0020    -3.5710 os         1 75P      -0.336900
     12 CAA          3.5280    -0.0030    -3.4980 c3         1 75P       0.126700
     13 CAD          2.1140    -0.0010    -1.2150 ca         1 75P      -0.131000
     14 CAV         -0.6890    -0.0010    -1.2190 ca         1 75P      -0.264300
     15 C2           0.0300     0.0010     2.3100 ca         1 75P       0.935900
     16 NBB         -0.6720     0.0010     3.5020 nh         1 75P      -0.668300
     17 CBF         -2.1270     0.0020     3.2580 c3         1 75P       0.157300
     18 CBE         -2.7120    -1.2310     3.9790 c3         1 75P      -0.099900
     19 CBD         -1.6440    -1.5420     5.0610 c3         1 75P      -0.099900
     20 CBC         -0.3320    -1.1840     4.3170 c3         1 75P       0.157300
     21 NAG          3.4660    -0.0010     1.3070 nu         1 75P      -0.887900
     22 CAH          4.1420    -0.0010     2.6060 c3         1 75P       0.231800
     23 CAI          5.6570    -0.0020     2.3930 c3         1 75P      -0.102400
     24 CAJ          6.3630    -0.0020     3.7500 c3         1 75P      -0.078400
     25 CAK          7.8790    -0.0030     3.5370 c3         1 75P      -0.080400
     26 CAL          8.5840    -0.0020     4.8940 c3         1 75P       0.158800
     27 NAM         10.0390    -0.0030     4.6900 n3         1 75P      -0.718600
     28 CAN         10.4950    -1.2940     4.1300 c3         1 75P       0.151300
     29 CAQ         10.7510     0.2350     5.9580 c3         1 75P       0.151300
     30 CAP         11.7090    -0.9550     6.1760 c3         1 75P      -0.097400
     31 CAO         11.8990    -1.5170     4.7430 c3         1 75P      -0.097400
     32 H1          -1.3390    -1.2000    -5.9480 hn         1 75P       0.461133
     33 H2          -2.3620    -2.0170    -4.9710 hn         1 75P       0.461133
     34 H4          -3.7200     0.0890    -4.9020 hx         1 75P       0.122200
     35 H5          -2.2310     0.8350    -5.4980 hx         1 75P       0.122200
     36 H6          -2.4130     0.8830    -3.0000 h1         1 75P       0.080200
     37 H7          -2.4130    -0.8860    -3.0000 h1         1 75P       0.080200
     38 H8           3.8620    -0.8880    -2.9690 h1         1 75P       0.048033
     39 H9           3.9410    -0.0040    -4.5000 h1         1 75P       0.048033
     40 H10          3.8630     0.8810    -2.9700 h1         1 75P       0.048033
     41 H11          3.1970    -0.0020    -1.2200 ha         1 75P       0.146000
     42 H12         -1.7640    -0.1300    -1.2330 ha         1 75P       0.147000
     43 H13         -2.3210    -0.0680     2.1950 h1         1 75P       0.067200
     44 H14         -2.5660     0.9060     3.6610 h1         1 75P       0.067200
     45 H15         -2.8120    -2.0620     3.2920 hc         1 75P       0.056700
     46 H16         -3.6620    -0.9880     4.4400 hc         1 75P       0.056700
     47 H17         -1.6610    -2.5920     5.3290 hc         1 75P       0.056700
     48 H18         -1.7790    -0.9100     5.9300 hc         1 75P       0.056700
     49 H19          0.4480    -0.9400     5.0280 h1         1 75P       0.067200
     50 H20         -0.0270    -2.0040     3.6790 h1         1 75P       0.067200
     51 H21          4.0030    -0.0010     0.4630 hn         1 75P       0.447800
     52 H22          3.8560     0.8840     3.1620 h1         1 75P       0.062700
     53 H23          3.8550    -0.8850     3.1630 h1         1 75P       0.062700
     54 H24          5.9450     0.8810     1.8370 hc         1 75P       0.046200
     55 H25          5.9430    -0.8880     1.8380 hc         1 75P       0.046200
     56 H26          6.0770     0.8830     4.3060 hc         1 75P       0.048200
     57 H27          6.0760    -0.8860     4.3060 hc         1 75P       0.048200
     58 H28          8.1650    -0.8880     2.9810 hc         1 75P       0.049700
     59 H29          8.1650     0.8810     2.9810 hc         1 75P       0.049700
     60 H30          8.2970    -0.8860     5.4500 h1         1 75P       0.035200
     61 H31          8.2980     0.8830     5.4490 h1         1 75P       0.035200
     62 H33          9.8240    -2.0910     4.4290 h1         1 75P       0.043200
     63 H34         10.5610    -1.2330     3.0510 h1         1 75P       0.043200
     64 H35         10.0410     0.2900     6.7740 h1         1 75P       0.043200
     65 H36         11.3180     1.1560     5.8930 h1         1 75P       0.043200
     66 H37         12.6550    -0.6140     6.5810 hc         1 75P       0.052200
     67 H38         11.2540    -1.6970     6.8200 hc         1 75P       0.052200
     68 H39         12.1440    -2.5720     4.7720 hc         1 75P       0.052200
     69 H40         12.6490    -0.9520     4.2030 hc         1 75P       0.052200
     70 OAX         -0.6460    -0.0020    -3.5830 os         1 75P      -0.346900
     71 HBA3        -2.9010    -1.4130    -6.3880 hn         1 75P       0.461133
@<TRIPOS>BOND
     1    31    30 1   
     2    31    28 1   
     3    30    29 1   
     4    28    27 1   
     5    27    29 1   
     6    27    26 1   
     7    26    25 1   
     8    25    24 1   
     9    24    23 1   
    10    23    22 1   
    11    19    18 1   
    12    19    20 1   
    13    17    18 1   
    14    17    16 1   
    15    20    16 1   
    16    16    15 1   
    17    22    21 1   
    18     4    15 ar  
    19     4     3 ar  
    20    15     5 ar  
    21    21     3 1   
    22     3     2 ar  
    23     5     1 ar  
    24     6     7 1   
    25     2     1 ar  
    26     2    13 ar  
    27     1    14 ar  
    28    13    10 ar  
    29    14     9 ar  
    30    10     9 ar  
    31    10    11 1   
    32     9    70 1   
    33     8    70 1   
    34     8     7 1   
    35    11    12 1   
    36     6    32 1   
    37     6    33 1   
    38     7    34 1   
    39     7    35 1   
    40     8    36 1   
    41     8    37 1   
    42    12    38 1   
    43    12    39 1   
    44    12    40 1   
    45    13    41 1   
    46    14    42 1   
    47    17    43 1   
    48    17    44 1   
    49    18    45 1   
    50    18    46 1   
    51    19    47 1   
    52    19    48 1   
    53    20    49 1   
    54    20    50 1   
    55    21    51 1   
    56    22    52 1   
    57    22    53 1   
    58    23    54 1   
    59    23    55 1   
    60    24    56 1   
    61    24    57 1   
    62    25    58 1   
    63    25    59 1   
    64    26    60 1   
    65    26    61 1   
    66    28    62 1   
    67    28    63 1   
    68    29    64 1   
    69    29    65 1   
    70    30    66 1   
    71    30    67 1   
    72    31    68 1   
    73    31    69 1   
    74    71     6 1   
@<TRIPOS>SUBSTRUCTURE
     1 75P         1 TEMP              0 ****  ****    0 ROOT
