@<TRIPOS>MOLECULE
75P
   71    74     1     0     0
SMALL
bcc


@<TRIPOS>ATOM
      1 C4           0.0000     0.0000     0.0000 ca         1 75P       0.484600
      2 C5           1.4160     0.0000     0.0000 ca         1 75P      -0.329600
      3 C6           2.0880     0.0000     1.2460 ca         1 75P       0.581200
      4 N1           1.3600     0.0000     2.3530 nb         1 75P      -0.725000
      5 N3          -0.6450    -0.0050     1.1780 nb         1 75P      -0.748000
      6 NBA         -2.2810    -1.2580    -5.6170 nz         1 75P       0.085400
      7 CAZ         -2.6420    -0.0020    -4.9450 c3         1 75P      -0.047200
      8 CAY         -2.0730    -0.0020    -3.5250 c3         1 75P       0.187400
      9 CAW          0.0210    -0.0020    -2.4000 ca         1 75P       0.136100
     10 CAC          1.4220    -0.0030    -2.3920 ca         1 75P       0.094100
     11 OAB          2.1000    -0.0020    -3.5710 os         1 75P      -0.316900
     12 CAA          3.5280    -0.0030    -3.4980 c3         1 75P       0.244700
     13 CAD          2.1140    -0.0010    -1.2150 ca         1 75P      -0.119000
     14 CAV         -0.6890    -0.0010    -1.2190 ca         1 75P      -0.254300
     15 C2           0.0300     0.0010     2.3100 ca         1 75P       0.781900
     16 NBB         -0.6720     0.0010     3.5020 nh         1 75P      -0.443300
     17 CBF         -2.1270     0.0020     3.2580 c3         1 75P       0.129300
     18 CBE         -2.7120    -1.2310     3.9790 c3         1 75P      -0.035400
     19 CBD         -1.6440    -1.5420     5.0610 c3         1 75P      -0.035400
     20 CBC         -0.3320    -1.1840     4.3170 c3         1 75P       0.129300
     21 NAG          3.4660    -0.0010     1.3070 nu         1 75P      -0.463900
     22 CAH          4.1420    -0.0010     2.6060 c3         1 75P       0.152800
     23 CAI          5.6570    -0.0020     2.3930 c3         1 75P      -0.041400
     24 CAJ          6.3630    -0.0020     3.7500 c3         1 75P      -0.020400
     25 CAK          7.8790    -0.0030     3.5370 c3         1 75P      -0.035400
     26 CAL          8.5840    -0.0020     4.8940 c3         1 75P       0.154800
     27 NAM         10.0390    -0.0030     4.6900 n3         1 75P      -0.547600
     28 CAN         10.4950    -1.2940     4.1300 c3         1 75P       0.151300
     29 CAQ         10.7510     0.2350     5.9580 c3         1 75P       0.151300
     30 CAP         11.7090    -0.9550     6.1760 c3         1 75P      -0.035400
     31 CAO         11.8990    -1.5170     4.7430 c3         1 75P      -0.035400
     32 H1          -1.3390    -1.2000    -5.9480 hn         1 75P       0.226467
     33 H2          -2.3620    -2.0170    -4.9710 hn         1 75P       0.226467
     34 H4          -3.7200     0.0890    -4.9020 hx         1 75P       0.091200
     35 H5          -2.2310     0.8350    -5.4980 hx         1 75P       0.091200
     36 H6          -2.4130     0.8830    -3.0000 h1         1 75P       0.041700
     37 H7          -2.4130    -0.8860    -3.0000 h1         1 75P       0.041700
     38 H8           3.8620    -0.8880    -2.9690 h1         1 75P       0.003033
     39 H9           3.9410    -0.0040    -4.5000 h1         1 75P       0.003033
     40 H10          3.8630     0.8810    -2.9700 h1         1 75P       0.003033
     41 H11          3.1970    -0.0020    -1.2200 ha         1 75P       0.129000
     42 H12         -1.7640    -0.1300    -1.2330 ha         1 75P       0.126000
     43 H13         -2.3210    -0.0680     2.1950 h1         1 75P       0.034950
     44 H14         -2.5660     0.9060     3.6610 h1         1 75P       0.034950
     45 H15         -2.8120    -2.0620     3.2920 hc         1 75P       0.024200
     46 H16         -3.6620    -0.9880     4.4400 hc         1 75P       0.024200
     47 H17         -1.6610    -2.5920     5.3290 hc         1 75P       0.024200
     48 H18         -1.7790    -0.9100     5.9300 hc         1 75P       0.024200
     49 H19          0.4480    -0.9400     5.0280 h1         1 75P       0.034950
     50 H20         -0.0270    -2.0040     3.6790 h1         1 75P       0.034950
     51 H21          4.0030    -0.0010     0.4630 hn         1 75P       0.295800
     52 H22          3.8560     0.8840     3.1620 h1         1 75P       0.036200
     53 H23          3.8550    -0.8850     3.1630 h1         1 75P       0.036200
     54 H24          5.9450     0.8810     1.8370 hc         1 75P       0.017700
     55 H25          5.9430    -0.8880     1.8380 hc         1 75P       0.017700
     56 H26          6.0770     0.8830     4.3060 hc         1 75P       0.019700
     57 H27          6.0760    -0.8860     4.3060 hc         1 75P       0.019700
     58 H28          8.1650    -0.8880     2.9810 hc         1 75P       0.022200
     59 H29          8.1650     0.8810     2.9810 hc         1 75P       0.022200
     60 H30          8.2970    -0.8860     5.4500 h1         1 75P       0.010700
     61 H31          8.2980     0.8830     5.4490 h1         1 75P       0.010700
     62 H33          9.8240    -2.0910     4.4290 h1         1 75P       0.014450
     63 H34         10.5610    -1.2330     3.0510 h1         1 75P       0.014450
     64 H35         10.0410     0.2900     6.7740 h1         1 75P       0.014450
     65 H36         11.3180     1.1560     5.8930 h1         1 75P       0.014450
     66 H37         12.6550    -0.6140     6.5810 hc         1 75P       0.021950
     67 H38         11.2540    -1.6970     6.8200 hc         1 75P       0.021950
     68 H39         12.1440    -2.5720     4.7720 hc         1 75P       0.021950
     69 H40         12.6490    -0.9520     4.2030 hc         1 75P       0.021950
     70 OAX         -0.6460    -0.0020    -3.5830 os         1 75P      -0.329900
     71 HBA3        -2.9010    -1.4130    -6.3880 hn         1 75P       0.226467
@<TRIPOS>BOND
     1     1     2 ar  
     2     1     5 ar  
     3     1    14 ar  
     4     2     3 ar  
     5     2    13 ar  
     6     3     4 ar  
     7     3    21 1   
     8     4    15 ar  
     9     5    15 ar  
    10     6     7 1   
    11     6    32 1   
    12     6    33 1   
    13     6    71 1   
    14     7     8 1   
    15     7    34 1   
    16     7    35 1   
    17     8    36 1   
    18     8    37 1   
    19     8    70 1   
    20     9    10 ar  
    21     9    14 ar  
    22     9    70 1   
    23    10    11 1   
    24    10    13 ar  
    25    11    12 1   
    26    12    38 1   
    27    12    39 1   
    28    12    40 1   
    29    13    41 1   
    30    14    42 1   
    31    15    16 1   
    32    16    17 1   
    33    16    20 1   
    34    17    18 1   
    35    17    43 1   
    36    17    44 1   
    37    18    19 1   
    38    18    45 1   
    39    18    46 1   
    40    19    20 1   
    41    19    47 1   
    42    19    48 1   
    43    20    49 1   
    44    20    50 1   
    45    21    22 1   
    46    21    51 1   
    47    22    23 1   
    48    22    52 1   
    49    22    53 1   
    50    23    24 1   
    51    23    54 1   
    52    23    55 1   
    53    24    25 1   
    54    24    56 1   
    55    24    57 1   
    56    25    26 1   
    57    25    58 1   
    58    25    59 1   
    59    26    27 1   
    60    26    60 1   
    61    26    61 1   
    62    27    28 1   
    63    27    29 1   
    64    28    31 1   
    65    28    62 1   
    66    28    63 1   
    67    29    30 1   
    68    29    64 1   
    69    29    65 1   
    70    30    31 1   
    71    30    66 1   
    72    30    67 1   
    73    31    68 1   
    74    31    69 1   
@<TRIPOS>SUBSTRUCTURE
     1 75P         1 TEMP              0 ****  ****    0 ROOT
