@<TRIPOS>MOLECULE
75Q
   54    57     1     0     0
SMALL
bcc


@<TRIPOS>ATOM
      1 CAN          0.0000     0.0000     0.0000 c3         1 75Q       0.143800
      2 CAL          1.5310     0.0000     0.0000 c3         1 75Q       0.143300
      3 NAS          2.0170     0.0000     1.3860 n7         1 75Q      -0.584200
      4 CAM          1.5300     1.1810     2.1140 c3         1 75Q       0.143300
      5 CAO         -0.0010     1.1810     2.1130 c3         1 75Q       0.143800
      6 NBD         -0.4870     1.1810     0.7260 nh         1 75Q      -0.473300
      7 CBB         -1.8750     1.2530     0.6850 ca         1 75Q       0.499200
      8 CAK         -2.5270     2.3060     1.3140 ca         1 75Q      -0.245300
      9 NAQ         -2.5610     0.3190     0.0440 nb         1 75Q      -0.625000
     10 CAE         -3.8800     0.3430    -0.0230 ca         1 75Q       0.439200
     11 CAF         -4.6020     1.3510     0.5780 ca         1 75Q      -0.253300
     12 CAY         -3.9210     2.3670     1.2590 cp         1 75Q       0.021000
     13 CAZ         -4.6600     3.4700     1.9200 cp         1 75Q      -0.025000
     14 CAJ         -6.0520     3.5050     1.8680 ca         1 75Q      -0.081500
     15 CAW         -6.7380     4.5320     2.4840 ca         1 75Q      -0.057600
     16 Cl1         -8.4720     4.5770     2.4200 cl         1 75Q       0.006600
     17 CAI         -3.9640     4.4690     2.5970 ca         1 75Q      -0.081500
     18 CAV         -4.6550     5.4940     3.2120 ca         1 75Q      -0.057600
     19 Cl2         -3.7890     6.7390     4.0560 cl         1 75Q       0.006600
     20 CBC         -6.0430     5.5290     3.1540 ca         1 75Q       0.127100
     21 OAT         -6.7210     6.5400     3.7600 os         1 75Q      -0.324900
     22 CAP         -6.9820     7.7060     2.9770 c3         1 75Q       0.277700
     23 CBA         -7.7370     8.7110     3.8090 ca         1 75Q      -0.229600
     24 CAH         -8.0680     8.4260     5.1240 ca         1 75Q      -0.042000
     25 CAG         -8.7630     9.3800     5.8520 ca         1 75Q      -0.226300
     26 CAU         -9.1000    10.5760     5.2450 ca         1 75Q       0.376600
     27 CAA         -9.8550    11.6210     6.0260 c3         1 75Q      -0.040400
     28 NAR         -8.7680    10.8130     3.9910 nb         1 75Q      -0.571000
     29 CAX         -8.1030     9.9300     3.2710 ca         1 75Q       0.384600
     30 CAB         -7.7420    10.2540     1.8430 c3         1 75Q      -0.047400
     31 H1          -0.3600    -0.8970     0.4880 h1         1 75Q       0.027950
     32 H2          -0.3600     0.0310    -1.0210 h1         1 75Q       0.027950
     33 H3           1.8910    -0.8860    -0.5080 h1         1 75Q       0.011950
     34 H4           1.8910     0.8860    -0.5080 h1         1 75Q       0.011950
     35 H5           3.0180    -0.0030     1.3890 hn         1 75Q       0.254800
     36 H7           1.8910     2.0780     1.6260 h1         1 75Q       0.011950
     37 H8           1.8890     1.1480     3.1350 h1         1 75Q       0.011950
     38 H9          -0.3610     2.0670     2.6210 h1         1 75Q       0.027950
     39 H10         -0.3610     0.2950     2.6210 h1         1 75Q       0.027950
     40 H11         -1.9630     3.0730     1.8310 ha         1 75Q       0.131000
     41 H12         -4.4020    -0.4440    -0.5550 h4         1 75Q      -0.019900
     42 H13         -5.6840     1.3630     0.5160 ha         1 75Q       0.122000
     43 H14         -6.5970     2.6990     1.3920 ha         1 75Q       0.127500
     44 H15         -2.8810     4.4670     2.6000 ha         1 75Q       0.127500
     45 H16         -7.5760     7.4340     2.1120 h1         1 75Q       0.009700
     46 H17         -6.0450     8.1390     2.6500 h1         1 75Q       0.009700
     47 H18         -7.7900     7.4800     5.5740 ha         1 75Q       0.127000
     48 H19         -9.0380     9.1920     6.8820 ha         1 75Q       0.116000
     49 H20         -9.2700    11.9200     6.8870 hc         1 75Q       0.013700
     50 H21        -10.8020    11.2110     6.3560 hc         1 75Q       0.013700
     51 H22        -10.0350    12.4830     5.3950 hc         1 75Q       0.013700
     52 H23         -6.6660    10.2260     1.7270 hc         1 75Q       0.015033
     53 H24         -8.1960     9.5260     1.1820 hc         1 75Q       0.015033
     54 H25         -8.1070    11.2440     1.5950 hc         1 75Q       0.015033
@<TRIPOS>BOND
     1     1     2 1   
     2     1     6 1   
     3     1    31 1   
     4     1    32 1   
     5     2     3 1   
     6     2    33 1   
     7     2    34 1   
     8     3     4 1   
     9     3    35 1   
    10     4     5 1   
    11     4    36 1   
    12     4    37 1   
    13     5     6 1   
    14     5    38 1   
    15     5    39 1   
    16     6     7 1   
    17     7     8 ar  
    18     7     9 ar  
    19     8    12 ar  
    20     8    40 1   
    21     9    10 ar  
    22    10    11 ar  
    23    10    41 1   
    24    11    12 ar  
    25    11    42 1   
    26    12    13 1   
    27    13    14 ar  
    28    13    17 ar  
    29    14    15 ar  
    30    14    43 1   
    31    15    16 1   
    32    15    20 ar  
    33    17    18 ar  
    34    17    44 1   
    35    18    19 1   
    36    18    20 ar  
    37    20    21 1   
    38    21    22 1   
    39    22    23 1   
    40    22    45 1   
    41    22    46 1   
    42    23    24 ar  
    43    23    29 ar  
    44    24    25 ar  
    45    24    47 1   
    46    25    26 ar  
    47    25    48 1   
    48    26    27 1   
    49    26    28 ar  
    50    27    49 1   
    51    27    50 1   
    52    27    51 1   
    53    28    29 ar  
    54    29    30 1   
    55    30    52 1   
    56    30    53 1   
    57    30    54 1   
@<TRIPOS>SUBSTRUCTURE
     1 75Q         1 TEMP              0 ****  ****    0 ROOT
