@<TRIPOS>MOLECULE
75R
   54    57     1     0     0
SMALL
bcc


@<TRIPOS>ATOM
      1 CAN          0.0000     0.0000     0.0000 c3         1 75R       0.143800
      2 CAL          1.5300     0.0000     0.0000 c3         1 75R       0.143300
      3 NAS          2.0190     0.0000     1.3860 n7         1 75R      -0.584200
      4 CAM          1.5320     1.1810     2.1130 c3         1 75R       0.143300
      5 CAO          0.0010     1.1800     2.1140 c3         1 75R       0.143800
      6 NBD         -0.4870     1.1810     0.7270 nh         1 75R      -0.472300
      7 CBA         -1.8750     1.2520     0.6880 ca         1 75R       0.499200
      8 CAK         -2.5270     2.3030     1.3210 ca         1 75R      -0.245300
      9 NAR         -2.5620     0.3220     0.0420 nb         1 75R      -0.625000
     10 CAF         -3.8800     0.3470    -0.0240 ca         1 75R       0.439200
     11 CAH         -4.6020     1.3520     0.5820 ca         1 75R      -0.253300
     12 CAY         -3.9200     2.3620     1.2720 cp         1 75R       0.021000
     13 CAZ         -4.6600     3.4640     1.9340 cp         1 75R      -0.026000
     14 CAJ         -6.0510     3.5040     1.8750 ca         1 75R      -0.081000
     15 CAW         -6.7370     4.5320     2.4910 ca         1 75R      -0.057100
     16 Cl1         -8.4700     4.5840     2.4180 cl         1 75R       0.003600
     17 CAI         -3.9640     4.4560     2.6230 ca         1 75R      -0.081000
     18 CAV         -4.6540     5.4810     3.2380 ca         1 75R      -0.057100
     19 Cl2         -3.7890     6.7180     4.0940 cl         1 75R       0.003600
     20 CBC         -6.0410     5.5230     3.1720 ca         1 75R       0.129100
     21 OAT         -6.7180     6.5320     3.7780 os         1 75R      -0.316900
     22 CAP         -7.1090     6.3280     5.1370 c3         1 75R       0.263700
     23 CBB         -7.8430     7.5450     5.6380 ca         1 75R      -0.229600
     24 CAU         -9.2200     7.6400     5.5020 ca         1 75R      -0.022300
     25 CAA        -10.0090     6.5310     4.8540 c3         1 75R       0.044200
     26 CAG         -9.8530     8.7770     5.9780 ca         1 75R      -0.239300
     27 CAE         -9.0970     9.7730     6.5670 ca         1 75R       0.421200
     28 NAQ         -7.7890     9.6490     6.6780 nb         1 75R      -0.589000
     29 CAX         -7.1530     8.5790     6.2420 ca         1 75R       0.411600
     30 CAB         -5.6570     8.4880     6.3940 c3         1 75R      -0.060400
     31 H1          -0.3600    -0.8980     0.4880 h1         1 75R       0.027950
     32 H2          -0.3600     0.0320    -1.0210 h1         1 75R       0.027950
     33 H3           1.8900    -0.8860    -0.5080 h1         1 75R       0.012200
     34 H4           1.8900     0.8860    -0.5090 h1         1 75R       0.012200
     35 H5           3.0200    -0.0030     1.3870 hn         1 75R       0.254800
     36 H7           1.8920     1.1490     3.1340 h1         1 75R       0.012200
     37 H8           1.8910     2.0780     1.6250 h1         1 75R       0.012200
     38 H9          -0.3580     0.2940     2.6220 h1         1 75R       0.027950
     39 H10         -0.3590     2.0660     2.6230 h1         1 75R       0.027950
     40 H11         -1.9620     3.0650     1.8450 ha         1 75R       0.131000
     41 H12         -4.4020    -0.4360    -0.5610 h4         1 75R      -0.020900
     42 H13         -5.6830     1.3630     0.5220 ha         1 75R       0.121000
     43 H14         -6.5900     2.7670     1.2920 ha         1 75R       0.127000
     44 H15         -2.8810     4.4460     2.6390 ha         1 75R       0.127000
     45 H16         -6.2270     6.1630     5.7450 h1         1 75R       0.008700
     46 H17         -7.7580     5.4630     5.2000 h1         1 75R       0.008700
     47 H18         -9.7760     5.5910     5.3390 hc         1 75R       0.017367
     48 H19         -9.7500     6.4700     3.8040 hc         1 75R       0.017367
     49 H20        -11.0680     6.7360     4.9540 hc         1 75R       0.017367
     50 H21        -10.9280     8.8850     5.8890 ha         1 75R       0.117000
     51 H22         -9.5840    10.6660     6.9390 h4         1 75R      -0.021900
     52 H23         -5.4020     7.5770     6.9210 hc         1 75R       0.020700
     53 H24         -5.1950     8.4800     5.4140 hc         1 75R       0.020700
     54 H25         -5.2980     9.3430     6.9550 hc         1 75R       0.020700
@<TRIPOS>BOND
     1     1     2 1   
     2     1     6 1   
     3     1    31 1   
     4     1    32 1   
     5     2     3 1   
     6     2    33 1   
     7     2    34 1   
     8     3     4 1   
     9     3    35 1   
    10     4     5 1   
    11     4    36 1   
    12     4    37 1   
    13     5     6 1   
    14     5    38 1   
    15     5    39 1   
    16     6     7 1   
    17     7     8 ar  
    18     7     9 ar  
    19     8    12 ar  
    20     8    40 1   
    21     9    10 ar  
    22    10    11 ar  
    23    10    41 1   
    24    11    12 ar  
    25    11    42 1   
    26    12    13 1   
    27    13    14 ar  
    28    13    17 ar  
    29    14    15 ar  
    30    14    43 1   
    31    15    16 1   
    32    15    20 ar  
    33    17    18 ar  
    34    17    44 1   
    35    18    19 1   
    36    18    20 ar  
    37    20    21 1   
    38    21    22 1   
    39    22    23 1   
    40    22    45 1   
    41    22    46 1   
    42    23    24 ar  
    43    23    29 ar  
    44    24    25 1   
    45    24    26 ar  
    46    25    47 1   
    47    25    48 1   
    48    25    49 1   
    49    26    27 ar  
    50    26    50 1   
    51    27    28 ar  
    52    27    51 1   
    53    28    29 ar  
    54    29    30 1   
    55    30    52 1   
    56    30    53 1   
    57    30    54 1   
@<TRIPOS>SUBSTRUCTURE
     1 75R         1 TEMP              0 ****  ****    0 ROOT
