@<TRIPOS>MOLECULE
75S
   51    54     1     0     0
SMALL
bcc


@<TRIPOS>ATOM
      1 CAN          0.0000     0.0000     0.0000 c3         1 75S       0.143800
      2 CAL          1.5300     0.0000     0.0000 c3         1 75S       0.143300
      3 NAS          2.0170     0.0000     1.3870 n7         1 75S      -0.584200
      4 CAM          1.5290     1.1820     2.1130 c3         1 75S       0.143300
      5 CAO         -0.0010     1.1820     2.1120 c3         1 75S       0.143800
      6 NBC         -0.4880     1.1810     0.7250 nh         1 75S      -0.473300
      7 CBA         -1.8760     1.2540     0.6840 ca         1 75S       0.500200
      8 CAK         -2.5280     2.3080     1.3110 ca         1 75S      -0.244300
      9 NAR         -2.5620     0.3200     0.0430 nb         1 75S      -0.624000
     10 CAF         -3.8800     0.3450    -0.0250 ca         1 75S       0.439200
     11 CAH         -4.6020     1.3540     0.5750 ca         1 75S      -0.253300
     12 CAX         -3.9200     2.3670     1.2600 cp         1 75S       0.021000
     13 CAY         -4.6600     3.4730     1.9140 cp         1 75S      -0.025000
     14 CAJ         -3.9640     4.4750     2.5880 ca         1 75S      -0.081500
     15 CAV         -4.6540     5.5040     3.1960 ca         1 75S      -0.057600
     16 Cl2         -3.7880     6.7530     4.0350 cl         1 75S       0.005600
     17 CAI         -6.0520     3.5150     1.8540 ca         1 75S      -0.081500
     18 CAU         -6.7370     4.5460     2.4640 ca         1 75S      -0.057600
     19 Cl1         -8.4710     4.5980     2.3880 cl         1 75S       0.005600
     20 CBB         -6.0420     5.5400     3.1390 ca         1 75S       0.128100
     21 OAT         -6.7190     6.5540     3.7380 os         1 75S      -0.324900
     22 CAP         -6.9800     7.7160     2.9500 c3         1 75S       0.276700
     23 CAZ         -7.7350     8.7250     3.7760 ca         1 75S      -0.221600
     24 CAG         -8.0660     8.4470     5.0930 ca         1 75S      -0.046000
     25 CAD         -8.7600     9.4060     5.8160 ca         1 75S      -0.227300
     26 CAE         -9.0960    10.5990     5.2030 ca         1 75S       0.404200
     27 NAQ         -8.7640    10.8290     3.9480 nb         1 75S      -0.576000
     28 CAW         -8.1000     9.9440     3.2320 ca         1 75S       0.381600
     29 CAA         -7.7450    10.2560     1.8020 c3         1 75S      -0.047400
     30 H1          -0.3600    -0.8970     0.4890 h1         1 75S       0.027950
     31 H2          -0.3600     0.0300    -1.0210 h1         1 75S       0.027950
     32 H3           1.8900    -0.8860    -0.5080 h1         1 75S       0.011950
     33 H4           1.8910     0.8860    -0.5080 h1         1 75S       0.011950
     34 H5           3.0170    -0.0040     1.3900 hn         1 75S       0.254800
     35 H7           1.8880     1.1510     3.1350 h1         1 75S       0.011950
     36 H8           1.8890     2.0790     1.6250 h1         1 75S       0.011950
     37 H9          -0.3610     2.0690     2.6200 h1         1 75S       0.027950
     38 H10         -0.3620     0.2970     2.6210 h1         1 75S       0.027950
     39 H11         -1.9640     3.0730     1.8320 ha         1 75S       0.131000
     40 H12         -4.4020    -0.4400    -0.5590 h4         1 75S      -0.019900
     41 H13         -5.6830     1.3650     0.5130 ha         1 75S       0.122000
     42 H14         -2.8800     4.4730     2.5930 ha         1 75S       0.127500
     43 H15         -6.5980     2.7150     1.3680 ha         1 75S       0.127500
     44 H16         -6.0420     8.1470     2.6210 h1         1 75S       0.009700
     45 H17         -7.5730     7.4410     2.0860 h1         1 75S       0.009700
     46 H18         -7.7890     7.5030     5.5460 ha         1 75S       0.127000
     47 H19         -9.0350     9.2230     6.8470 ha         1 75S       0.114000
     48 H20         -9.6400    11.3520     5.7600 h4         1 75S      -0.020900
     49 H21         -6.6690    10.2260     1.6820 hc         1 75S       0.016033
     50 H22         -8.2020     9.5230     1.1480 hc         1 75S       0.016033
     51 H23         -8.1100    11.2440     1.5480 hc         1 75S       0.016033
@<TRIPOS>BOND
     1     1     2 1   
     2     1     6 1   
     3     1    30 1   
     4     1    31 1   
     5     2     3 1   
     6     2    32 1   
     7     2    33 1   
     8     3     4 1   
     9     3    34 1   
    10     4     5 1   
    11     4    35 1   
    12     4    36 1   
    13     5     6 1   
    14     5    37 1   
    15     5    38 1   
    16     6     7 1   
    17     7     8 ar  
    18     7     9 ar  
    19     8    12 ar  
    20     8    39 1   
    21     9    10 ar  
    22    10    11 ar  
    23    10    40 1   
    24    11    12 ar  
    25    11    41 1   
    26    12    13 1   
    27    13    14 ar  
    28    13    17 ar  
    29    14    15 ar  
    30    14    42 1   
    31    15    16 1   
    32    15    20 ar  
    33    17    18 ar  
    34    17    43 1   
    35    18    19 1   
    36    18    20 ar  
    37    20    21 1   
    38    21    22 1   
    39    22    23 1   
    40    22    44 1   
    41    22    45 1   
    42    23    24 ar  
    43    23    28 ar  
    44    24    25 ar  
    45    24    46 1   
    46    25    26 ar  
    47    25    47 1   
    48    26    27 ar  
    49    26    48 1   
    50    27    28 ar  
    51    28    29 1   
    52    29    49 1   
    53    29    50 1   
    54    29    51 1   
@<TRIPOS>SUBSTRUCTURE
     1 75S         1 TEMP              0 ****  ****    0 ROOT
