@<TRIPOS>MOLECULE
molecule
   51    54     1     0     0
SMALL
bcc


@<TRIPOS>ATOM
      1 CAN          0.0000     0.0000     0.0000 c3         1 75S       0.173300
      2 CAL          1.5300     0.0000     0.0000 c3         1 75S       0.152800
      3 NAS          2.0170     0.0000     1.3870 n7         1 75S      -0.821200
      4 CAM          1.5290     1.1820     2.1130 c3         1 75S       0.152800
      5 CAO         -0.0010     1.1820     2.1120 c3         1 75S       0.173300
      6 NBC         -0.4880     1.1810     0.7250 nh         1 75S      -0.702300
      7 CBA         -1.8760     1.2540     0.6840 ca         1 75S       0.624200
      8 CAK         -2.5280     2.3080     1.3110 ca         1 75S      -0.260300
      9 NAR         -2.5620     0.3200     0.0430 nb         1 75S      -0.737000
     10 CAF         -3.8800     0.3450    -0.0250 ca         1 75S       0.452200
     11 CAH         -4.6020     1.3540     0.5750 ca         1 75S      -0.276300
     12 CAX         -3.9200     2.3670     1.2600 cp         1 75S       0.015000
     13 CAY         -4.6600     3.4730     1.9140 cp         1 75S      -0.028000
     14 CAJ         -3.9640     4.4750     2.5880 ca         1 75S      -0.100500
     15 CAV         -4.6540     5.5040     3.1960 ca         1 75S       0.013400
     16 Cl2         -3.7880     6.7530     4.0350 cl         1 75S      -0.078400
     17 CAI         -6.0520     3.5150     1.8540 ca         1 75S      -0.100500
     18 CAU         -6.7370     4.5460     2.4640 ca         1 75S       0.013400
     19 Cl1         -8.4710     4.5980     2.3880 cl         1 75S      -0.078400
     20 CBB         -6.0420     5.5400     3.1390 ca         1 75S       0.127100
     21 OAT         -6.7190     6.5540     3.7380 os         1 75S      -0.339900
     22 CAP         -6.9800     7.7160     2.9500 c3         1 75S       0.197700
     23 CAZ         -7.7350     8.7250     3.7760 ca         1 75S      -0.213600
     24 CAG         -8.0660     8.4470     5.0930 ca         1 75S      -0.064000
     25 CAD         -8.7600     9.4060     5.8160 ca         1 75S      -0.262300
     26 CAE         -9.0960    10.5990     5.2030 ca         1 75S       0.423200
     27 NAQ         -8.7640    10.8290     3.9480 nb         1 75S      -0.690000
     28 CAW         -8.1000     9.9440     3.2320 ca         1 75S       0.433600
     29 CAA         -7.7450    10.2560     1.8020 c3         1 75S      -0.145400
     30 H1          -0.3600    -0.8970     0.4890 h1         1 75S       0.056450
     31 H2          -0.3600     0.0300    -1.0210 h1         1 75S       0.056450
     32 H3           1.8900    -0.8860    -0.5080 h1         1 75S       0.041450
     33 H4           1.8910     0.8860    -0.5080 h1         1 75S       0.041450
     34 H5           3.0170    -0.0040     1.3900 hn         1 75S       0.356800
     35 H7           1.8880     1.1510     3.1350 h1         1 75S       0.041450
     36 H8           1.8890     2.0790     1.6250 h1         1 75S       0.041450
     37 H9          -0.3610     2.0690     2.6200 h1         1 75S       0.056450
     38 H10         -0.3620     0.2970     2.6210 h1         1 75S       0.056450
     39 H11         -1.9640     3.0730     1.8320 ha         1 75S       0.147000
     40 H12         -4.4020    -0.4400    -0.5590 h4         1 75S       0.026100
     41 H13         -5.6830     1.3650     0.5130 ha         1 75S       0.140000
     42 H14         -2.8800     4.4730     2.5930 ha         1 75S       0.156000
     43 H15         -6.5980     2.7150     1.3680 ha         1 75S       0.156000
     44 H16         -6.0420     8.1470     2.6210 h1         1 75S       0.047700
     45 H17         -7.5730     7.4410     2.0860 h1         1 75S       0.047700
     46 H18         -7.7890     7.5030     5.5460 ha         1 75S       0.158000
     47 H19         -9.0350     9.2230     6.8470 ha         1 75S       0.139000
     48 H20         -9.6400    11.3520     5.7600 h4         1 75S       0.023100
     49 H21         -6.6690    10.2260     1.6820 hc         1 75S       0.053367
     50 H22         -8.2020     9.5230     1.1480 hc         1 75S       0.053367
     51 H23         -8.1100    11.2440     1.5480 hc         1 75S       0.053367
@<TRIPOS>BOND
     1     2     3 1   
     2     2     1 1   
     3     3     4 1   
     4     1     6 1   
     5     4     5 1   
     6     6     5 1   
     7     6     7 1   
     8     7     9 ar  
     9     7     8 ar  
    10     9    10 ar  
    11    10    11 ar  
    12     8    12 ar  
    13    11    12 ar  
    14    12    13 1   
    15    13    17 ar  
    16    13    14 ar  
    17    17    18 ar  
    18    26    25 ar  
    19    26    27 ar  
    20    25    24 ar  
    21    14    15 ar  
    22    27    28 ar  
    23    18    19 1   
    24    18    20 ar  
    25    24    23 ar  
    26    15    20 ar  
    27    15    16 1   
    28    28    23 ar  
    29    28    29 1   
    30    20    21 1   
    31    23    22 1   
    32    21    22 1   
    33     1    30 1   
    34     1    31 1   
    35     2    32 1   
    36     2    33 1   
    37     3    34 1   
    38     4    35 1   
    39     4    36 1   
    40     5    37 1   
    41     5    38 1   
    42     8    39 1   
    43    10    40 1   
    44    11    41 1   
    45    14    42 1   
    46    17    43 1   
    47    22    44 1   
    48    22    45 1   
    49    24    46 1   
    50    25    47 1   
    51    26    48 1   
    52    29    49 1   
    53    29    50 1   
    54    29    51 1   
@<TRIPOS>SUBSTRUCTURE
     1 75S         1 TEMP              0 ****  ****    0 ROOT
