@<TRIPOS>MOLECULE
molecule
   53    56     1     0     0
SMALL
bcc


@<TRIPOS>ATOM
      1 CAO          0.0000     0.0000     0.0000 c3         1 75T      -0.070400
      2 CAM          1.5310     0.0000     0.0000 c3         1 75T       0.156800
      3 NAS          2.0220     0.0000     1.3850 n7         1 75T      -0.819200
      4 CAN          1.5880     1.2060     2.1010 c3         1 75T       0.156800
      5 CAP          0.0600     1.2420     2.1630 c3         1 75T      -0.070400
      6 CBA         -0.5050     1.2420     0.7410 c3         1 75T      -0.026400
      7 CAX         -2.0110     1.2170     0.7950 ca         1 75T      -0.073300
      8 CAL         -2.7370     2.2440     0.2290 ca         1 75T      -0.121000
      9 CAF         -2.6620     0.1610     1.4090 ca         1 75T      -0.125000
     10 CAC         -4.0430     0.1330     1.4630 ca         1 75T      -0.123000
     11 CAE         -4.7800     1.1570     0.9050 ca         1 75T      -0.127000
     12 CAW         -4.1300     2.2200     0.2810 cp         1 75T      -0.026000
     13 CAV         -4.9160     3.3250    -0.3200 cp         1 75T      -0.071000
     14 CAK         -6.3090     3.3020    -0.2630 ca         1 75T      -0.081000
     15 CAI         -7.0370     4.3310    -0.8230 ca         1 75T      -0.188500
     16 CAJ         -4.2650     4.3910    -0.9390 ca         1 75T      -0.081000
     17 CAH         -4.9980     5.4160    -1.4970 ca         1 75T      -0.188500
     18 CAU         -6.3860     5.3880    -1.4430 ca         1 75T       0.144100
     19 OAT         -7.1060     6.3990    -1.9940 os         1 75T      -0.332900
     20 CAQ         -8.5290     6.3070    -1.9020 c3         1 75T       0.192700
     21 CAZ         -9.1530     7.5090    -2.5630 ca         1 75T      -0.216600
     22 CAG         -8.3580     8.4850    -3.1420 ca         1 75T      -0.065000
     23 CAB         -8.9750     9.5730    -3.7380 ca         1 75T      -0.261300
     24 CAD        -10.3560     9.6490    -3.7360 ca         1 75T       0.424200
     25 NAR        -11.0820     8.7010    -3.1750 nb         1 75T      -0.689000
     26 CAY        -10.5280     7.6500    -2.6040 ca         1 75T       0.432600
     27 CAA        -11.4040     6.5910    -1.9840 c3         1 75T      -0.145400
     28 H1          -0.3610    -0.8900     0.5010 hc         1 75T       0.052950
     29 H2          -0.3610     0.0180    -1.0210 hc         1 75T       0.052950
     30 H3           1.8910    -0.8860    -0.5090 h1         1 75T       0.031200
     31 H4           1.8910     0.8860    -0.5090 h1         1 75T       0.031200
     32 H5           3.0210    -0.0470     1.3840 hn         1 75T       0.352800
     33 H7           1.9480     2.0840     1.5780 h1         1 75T       0.031200
     34 H8           1.9880     1.1890     3.1070 h1         1 75T       0.031200
     35 H9          -0.3000     0.3700     2.6940 hc         1 75T       0.052950
     36 H10         -0.2580     2.1420     2.6760 hc         1 75T       0.052950
     37 H11         -0.1710     2.1310     0.2200 hc         1 75T       0.051700
     38 H12         -2.2260     3.0680    -0.2550 ha         1 75T       0.132000
     39 H13         -2.0870    -0.6450     1.8480 ha         1 75T       0.136000
     40 H14         -4.5480    -0.6950     1.9470 ha         1 75T       0.130000
     41 H15         -5.8620     1.1330     0.9480 ha         1 75T       0.130000
     42 H16         -6.8180     2.4780     0.2210 ha         1 75T       0.137000
     43 H17         -8.1190     4.3120    -0.7800 ha         1 75T       0.138500
     44 H18         -3.1820     4.4130    -0.9820 ha         1 75T       0.137000
     45 H19         -4.4920     6.2430    -1.9800 ha         1 75T       0.138500
     46 H20         -8.8660     5.4060    -2.4000 h1         1 75T       0.048700
     47 H21         -8.8230     6.2750    -0.8600 h1         1 75T       0.048700
     48 H22         -7.2780     8.4000    -3.1280 ha         1 75T       0.157000
     49 H23         -8.3840    10.3550    -4.2000 ha         1 75T       0.140000
     50 H24        -10.8470    10.4970    -4.1970 h4         1 75T       0.023100
     51 H25        -11.1770     6.5080    -0.9280 hc         1 75T       0.053033
     52 H26        -12.4440     6.8630    -2.1100 hc         1 75T       0.053033
     53 H27        -11.2180     5.6400    -2.4690 hc         1 75T       0.053033
@<TRIPOS>BOND
     1    19    20 1
     2    19    18 1
     3    20    21 1
     4    18    17 ar
     5    18    15 ar
     6    17    16 ar
     7    27    26 1
     8    21    26 ar
     9    21    22 ar
    10    15    14 ar
    11    16    13 ar
    12    26    25 ar
    13    22    23 ar
    14    14    13 ar
    15    13    12 1
    16    11    12 ar
    17    11    10 ar
    18    25    24 ar
    19    12     8 ar
    20    10     9 ar
    21    23    24 ar
    22     8     7 ar
    23     9     7 ar
    24     7     6 1
    25     6     5 1
    26     6     1 1
    27     5     4 1
    28     1     2 1
    29     4     3 1
    30     2     3 1
    31     1    28 1
    32     1    29 1
    33     2    30 1
    34     2    31 1
    35     3    32 1
    36     4    33 1
    37     4    34 1
    38     5    35 1
    39     5    36 1
    40     6    37 1
    41     8    38 1
    42     9    39 1
    43    10    40 1
    44    11    41 1
    45    14    42 1
    46    15    43 1
    47    16    44 1
    48    17    45 1
    49    20    46 1
    50    20    47 1
    51    22    48 1
    52    23    49 1
    53    24    50 1
    54    27    51 1
    55    27    52 1
    56    27    53 1
@<TRIPOS>SUBSTRUCTURE
     1 75T         1 TEMP              0 ****  ****    0 ROOT
