@<TRIPOS>MOLECULE
75U
   54    56     1     0     0
SMALL
bcc


@<TRIPOS>ATOM
      1 C1           0.0000     0.0000     0.0000 ca         1 75U      -0.057300
      2 C2           1.3810     0.0000     0.0000 ca         1 75U       0.131100
      3 C3           2.0810     0.0000     1.2030 ca         1 75U      -0.012900
      4 C4           1.4080     0.0010     2.4060 ca         1 75U      -0.055000
      5 C29         -5.3560     2.5240    -1.0590 c3         1 75U      -0.004100
      6 C28         -4.9080     1.1100    -0.6860 c3         1 75U       0.221400
      7 O27         -3.7790     1.1840     0.2250 os         1 75U      -0.405900
      8 O30         -3.7370    -1.0360     0.2740 o          1 75U      -0.572000
      9 C11         -2.1180     0.0140     1.5750 cc         1 75U      -0.173400
     10 C10         -0.6890     0.0070     1.2100 ca         1 75U      -0.014800
     11 C31         -0.7580    -0.0020    -1.3030 c3         1 75U       0.207100
     12 N32         -1.0040    -1.3870    -1.7250 n3         1 75U      -0.532600
     13 C34         -1.9390    -1.4350    -2.8580 c3         1 75U       0.173100
     14 C33          0.2550    -2.0690    -2.0520 c3         1 75U       0.173100
     15 O35          2.0590    -0.0020    -1.1790 oh         1 75U      -0.483100
     16 Br5          3.9720    -0.0010     1.1890 br         1 75U      -0.120100
     17 C9           0.0170     0.0010     2.4240 ca         1 75U      -0.233200
     18 N8          -0.9140     0.0020     3.4440 na         1 75U       0.435600
     19 C12         -0.5880     0.0030     4.8730 c3         1 75U      -0.027400
     20 C7          -2.1700     0.0020     2.9380 cd         1 75U      -0.180300
     21 C13         -3.4350     0.0040     3.7580 c3         1 75U       0.154900
     22 S14         -3.9410     1.7130     4.0870 ss         1 75U      -0.326000
     23 C18         -5.4100     1.5160     5.0400 ca         1 75U       0.055900
     24 C17         -6.1040     2.6330     5.4900 ca         1 75U      -0.099500
     25 C16         -7.2550     2.4740     6.2350 ca         1 75U      -0.085500
     26 C15         -7.7170     1.2060     6.5360 ca         1 75U      -0.102000
     27 C20         -7.0290     0.0920     6.0900 ca         1 75U      -0.085500
     28 C19         -5.8810     0.2430     5.3380 ca         1 75U      -0.099500
     29 H1           1.9620     0.0010     3.3370 ha         1 75U       0.115000
     30 H2          -4.5240     3.0650    -1.4920 hc         1 75U       0.010367
     31 H3          -5.6990     3.0410    -0.1700 hc         1 75U       0.010367
     32 H4          -6.1640     2.4690    -1.7780 hc         1 75U       0.010367
     33 H5          -5.7260     0.5870    -0.2050 h1         1 75U       0.007200
     34 H6          -4.6150     0.5770    -1.5820 h1         1 75U       0.007200
     35 H7          -1.7050     0.5090    -1.1710 h1         1 75U       0.018700
     36 H8          -0.1760     0.5080    -2.0610 h1         1 75U       0.018700
     37 H10         -1.4390    -1.8580    -3.7210 h1         1 75U       0.005033
     38 H11         -2.7910    -2.0500    -2.5970 h1         1 75U       0.005033
     39 H12         -2.2750    -0.4320    -3.0910 h1         1 75U       0.005033
     40 H13          0.8640    -1.4240    -2.6730 h1         1 75U       0.005033
     41 H14          0.0400    -2.9860    -2.5870 h1         1 75U       0.005033
     42 H15          0.7890    -2.3000    -1.1390 h1         1 75U       0.005033
     43 H16          2.6640     0.7210    -1.1940 ho         1 75U       0.404000
     44 H17          0.4860    -0.0610     4.9980 h1         1 75U       0.027367
     45 H18         -0.9510     0.9180     5.3250 h1         1 75U       0.027367
     46 H19         -1.0580    -0.8480     5.3510 h1         1 75U       0.027367
     47 H20         -3.2570    -0.5070     4.6970 h1         1 75U       0.052700
     48 H21         -4.2190    -0.5070     3.2130 h1         1 75U       0.052700
     49 H22         -5.7430     3.6270     5.2550 ha         1 75U       0.115500
     50 H23         -7.7970     3.3450     6.5860 ha         1 75U       0.105500
     51 H24         -8.6190     1.0840     7.1230 ha         1 75U       0.105000
     52 H25         -7.3950    -0.9000     6.3250 ha         1 75U       0.105500
     53 H26         -5.3420    -0.6300     4.9890 ha         1 75U       0.115500
     54 C26         -3.2600     0.0160     0.6530 c          1 75U       0.751300
@<TRIPOS>BOND
     1     1     2 ar  
     2     1    10 ar  
     3     1    11 1   
     4     2     3 ar  
     5     2    15 1   
     6     3     4 ar  
     7     3    16 1   
     8     4    17 ar  
     9     4    29 1   
    10     5     6 1   
    11     5    30 1   
    12     5    31 1   
    13     5    32 1   
    14     6     7 1   
    15     6    33 1   
    16     6    34 1   
    17     7    54 1   
    18     8    54 2   
    19     9    10 1   
    20     9    20 2   
    21     9    54 1   
    22    10    17 ar  
    23    11    12 1   
    24    11    35 1   
    25    11    36 1   
    26    12    13 1   
    27    12    14 1   
    28    13    37 1   
    29    13    38 1   
    30    13    39 1   
    31    14    40 1   
    32    14    41 1   
    33    14    42 1   
    34    15    43 1   
    35    17    18 1   
    36    18    19 1   
    37    18    20 1   
    38    19    44 1   
    39    19    45 1   
    40    19    46 1   
    41    20    21 1   
    42    21    22 1   
    43    21    47 1   
    44    21    48 1   
    45    22    23 1   
    46    23    24 ar  
    47    23    28 ar  
    48    24    25 ar  
    49    24    49 1   
    50    25    26 ar  
    51    25    50 1   
    52    26    27 ar  
    53    26    51 1   
    54    27    28 ar  
    55    27    52 1   
    56    28    53 1   
@<TRIPOS>SUBSTRUCTURE
     1 75U         1 TEMP              0 ****  ****    0 ROOT
