@<TRIPOS>MOLECULE
molecule
   47    47     1     0     0
SMALL
bcc


@<TRIPOS>ATOM
      1 C9           0.0000     0.0000     0.0000 c          1 75V       0.651100
      2 O2           1.2080     0.0000     0.0000 o          1 75V      -0.527000
      3 O3          -0.6720     0.0000     1.1630 os         1 75V      -0.433900
      4 C10          0.0560     0.0010     2.4200 c3         1 75V       0.155400
      5 C11         -0.9390     0.0000     3.5840 c3         1 75V      -0.097100
      6 C3          -1.5810    -1.2410    -1.6500 cx         1 75V      -0.007900
      7 C2          -0.7550    -0.0000    -1.3040 cx         1 75V       0.000100
      8 O1          -0.3490    -0.9330    -2.3080 op         1 75V      -0.320600
      9 O4          -2.9480    -1.4510    -3.5620 o          1 75V      -0.595100
     10 N1          -3.9020    -0.4090    -1.8510 ns         1 75V      -0.547900
     11 C5          -5.1440    -0.2160    -2.6020 c3         1 75V       0.038700
     12 C6          -5.8850     0.9760    -2.0520 c          1 75V       0.638100
     13 O5          -5.4200     1.6010    -1.1220 o          1 75V      -0.655100
     14 C12         -6.0190    -1.4650    -2.4730 c3         1 75V      -0.082700
     15 C14         -6.3480    -1.7060    -0.9990 c3         1 75V      -0.081400
     16 C13         -5.2670    -2.6750    -3.0320 c3         1 75V      -0.095100
     17 C15         -7.3220    -2.8800    -0.8790 c3         1 75V      -0.088100
     18 N2          -7.0630     1.3450    -2.5920 ns         1 75V      -0.530900
     19 C7          -7.7830     2.5040    -2.0570 c3         1 75V      -0.002300
     20 C8          -9.2540     2.3620    -2.3550 c          1 75V       0.888600
     21 O6         -10.1130     3.3130    -1.9560 o          1 75V      -0.839800
     22 C16         -7.2500     3.7810    -2.7080 c3         1 75V      -0.083100
     23 O7          -9.6580     1.3950    -2.9540 o          1 75V      -0.839800
     24 H101         0.6780     0.8860     2.4770 h1         1 75V       0.045700
     25 H102         0.6790    -0.8830     2.4770 h1         1 75V       0.045700
     26 H111        -1.5830     0.8680     3.5080 hc         1 75V       0.049367
     27 H112        -1.5390    -0.9000     3.5450 hc         1 75V       0.049367
     28 H113        -0.3970     0.0340     4.5210 hc         1 75V       0.049367
     29 H3          -1.5210    -2.0440    -0.9250 h1         1 75V       0.112700
     30 H2          -1.1540     0.9330    -1.6840 h1         1 75V       0.136700
     31 HN1         -3.8150    -0.0390    -0.9250 hn         1 75V       0.339500
     32 H5          -4.9110    -0.0450    -3.6470 h1         1 75V       0.087700
     33 H12         -6.9370    -1.3210    -3.0290 hc         1 75V       0.074700
     34 H141        -5.4370    -1.9360    -0.4590 hc         1 75V       0.047700
     35 H142        -6.8010    -0.8160    -0.5800 hc         1 75V       0.047700
     36 H131        -5.9740    -3.4590    -3.2740 hc         1 75V       0.039033
     37 H132        -4.7300    -2.3840    -3.9280 hc         1 75V       0.039033
     38 H133        -4.5640    -3.0370    -2.2920 hc         1 75V       0.039033
     39 H151        -6.7680    -3.8100    -0.8700 hc         1 75V       0.031033
     40 H152        -7.8870    -2.7870     0.0410 hc         1 75V       0.031033
     41 H153        -8.0020    -2.8720    -1.7220 hc         1 75V       0.031033
     42 HN2         -7.4330     0.8440    -3.3750 hn         1 75V       0.330500
     43 H7          -7.6350     2.5570    -0.9850 h1         1 75V       0.072700
     44 H161        -8.0310     4.2320    -3.3080 hc         1 75V       0.029033
     45 H162        -6.9390     4.4760    -1.9380 hc         1 75V       0.029033
     46 H163        -6.4040     3.5380    -3.3390 hc         1 75V       0.029033
     47 C4          -2.8590    -1.0420    -2.4230 c          1 75V       0.667100
@<TRIPOS>BOND
     1     1     2 2
     2     1     3 1
     3     1     7 1
     4     3     4 1
     5     4     5 1
     6     4    24 1
     7     4    25 1
     8     5    26 1
     9     5    27 1
    10     5    28 1
    11    47     6 1
    12    47     9 2
    13    47    10 1
    14     6     7 1
    15     6     8 1
    16     6    29 1
    17     7     8 1
    18     7    30 1
    19    10    11 1
    20    10    31 1
    21    11    12 1
    22    11    14 1
    23    11    32 1
    24    12    13 2
    25    12    18 1
    26    14    15 1
    27    14    16 1
    28    14    33 1
    29    15    17 1
    30    15    34 1
    31    15    35 1
    32    16    36 1
    33    16    37 1
    34    16    38 1
    35    17    39 1
    36    17    40 1
    37    17    41 1
    38    18    19 1
    39    18    42 1
    40    19    20 1
    41    19    22 1
    42    19    43 1
    43    20    21 1
    44    20    23 1
    45    22    44 1
    46    22    45 1
    47    22    46 1
@<TRIPOS>SUBSTRUCTURE
     1 75V         1 TEMP              0 ****  ****    0 ROOT
