@<TRIPOS>MOLECULE
molecule
   20    20     1     0     0
SMALL
bcc


@<TRIPOS>ATOM
      1 C4           0.0000     0.0000     0.0000 ca         1 75W      -0.337500
      2 C5           1.3840     0.0000     0.0000 ca         1 75W      -0.033000
      3 C6           2.0760     0.0000     1.1930 ca         1 75W      -0.107500
      4 N12          3.3010    -0.0000     3.5940 n2         1 75W      -0.376400
      5 C1           1.3780     0.0000     2.4010 ca         1 75W       0.197400
      6 C2          -0.0170     0.0000     2.3950 ca         1 75W      -0.107500
      7 C3          -0.6980     0.0060     1.1940 ca         1 75W      -0.033000
      8 S18         -0.8770     0.0000    -1.5280 sy         1 75W       1.226200
      9 O9          -2.1610     0.5440    -1.2530 o          1 75W      -0.516300
     10 O10          0.0070     0.5440    -2.4980 o          1 75W      -0.516300
     11 N8          -1.1220    -1.5810    -1.9530 nz         1 75W      -0.807500
     12 H1           1.9250    -0.0030    -0.9390 ha         1 75W       0.159000
     13 H2           3.1600    -0.0000     1.1910 ha         1 75W       0.183500
     14 H3           3.7990    -0.0000     4.4620 hn         1 75W       0.455400
     15 H4          -0.5650     0.0030     3.3300 ha         1 75W       0.183500
     16 H5          -1.7810     0.0060     1.1870 ha         1 75W       0.159000
     17 H6          -1.6540    -2.0400    -1.2410 hn         1 75W       0.492467
     18 H7          -0.2380    -2.0400    -2.0570 hn         1 75W       0.492467
     19 N11          2.0610     0.0000     3.5900 ne         1 75W      -0.206400
     20 H83         -1.6210    -1.6200    -2.8200 hn         1 75W       0.492467
@<TRIPOS>BOND
     1     4    19 2
     2    19     5 1
     3     5     6 ar
     4     5     3 ar
     5     6     7 ar
     6     3     2 ar
     7     7     1 ar
     8     2     1 ar
     9     1     8 1
    10    11     8 1
    11    10     8 2
    12     8     9 2
    13     2    12 1
    14     3    13 1
    15     4    14 1
    16     6    15 1
    17     7    16 1
    18    11    17 1
    19    11    18 1
    20    20    11 1
@<TRIPOS>SUBSTRUCTURE
     1 75W         1 TEMP              0 ****  ****    0 ROOT
