@<TRIPOS>MOLECULE
75W
   20    20     1     0     0
SMALL
bcc


@<TRIPOS>ATOM
      1 C4           0.0000     0.0000     0.0000 ca         1 75W      -0.230500
      2 C5           1.3840     0.0000     0.0000 ca         1 75W       0.024000
      3 C6           2.0760     0.0000     1.1930 ca         1 75W      -0.105500
      4 N12          3.3010    -0.0000     3.5940 n2         1 75W      -0.191400
      5 C1           1.3780     0.0000     2.4010 ca         1 75W       0.121400
      6 C2          -0.0170     0.0000     2.3950 ca         1 75W      -0.105500
      7 C3          -0.6980     0.0060     1.1940 ca         1 75W       0.024000
      8 S18         -0.8770     0.0000    -1.5280 sy         1 75W       0.938200
      9 O9          -2.1610     0.5440    -1.2530 o          1 75W      -0.492800
     10 O10          0.0070     0.5440    -2.4980 o          1 75W      -0.492800
     11 N8          -1.1220    -1.5810    -1.9530 nz         1 75W      -0.131500
     12 H1           1.9250    -0.0030    -0.9390 ha         1 75W       0.129000
     13 H2           3.1600    -0.0000     1.1910 ha         1 75W       0.143000
     14 H3           3.8040    -0.0000     2.7290 hn         1 75W       0.294400
     15 H4          -0.5650     0.0030     3.3300 ha         1 75W       0.143000
     16 H5          -1.7810     0.0060     1.1870 ha         1 75W       0.129000
     17 H6          -1.6210    -1.6200    -2.8200 hn         1 75W       0.314467
     18 H7          -1.6540    -2.0400    -1.2410 hn         1 75W       0.314467
     19 N11          2.0610     0.0000     3.5900 ne         1 75W      -0.140400
     20 H83         -0.2380    -2.0400    -2.0570 hn         1 75W       0.314467
@<TRIPOS>BOND
     1     1     2 ar  
     2     1     7 ar  
     3     1     8 1   
     4     2     3 ar  
     5     2    12 1   
     6     3     5 ar  
     7     3    13 1   
     8     4    14 1   
     9     4    19 2   
    10     5     6 ar  
    11     5    19 1   
    12     6     7 ar  
    13     6    15 1   
    14     7    16 1   
    15     8     9 2   
    16     8    10 2   
    17     8    11 1   
    18    11    17 1   
    19    11    18 1   
    20    11    20 1   
@<TRIPOS>SUBSTRUCTURE
     1 75W         1 TEMP              0 ****  ****    0 ROOT
