@<TRIPOS>MOLECULE
75X
   49    52     1     0     0
SMALL
bcc


@<TRIPOS>ATOM
      1 N1           0.0000     0.0000     0.0000 nb         1 75X      -0.734000
      2 C2           1.3270     0.0000     0.0000 ca         1 75X       0.732900
      3 N2           1.9960     0.0000    -1.2140 nv         1 75X      -0.592500
      4 N3           2.0340     0.0000     1.1170 nb         1 75X      -0.631000
      5 C4           1.4220    -0.0000     2.3070 ca         1 75X       0.574300
      6 C5           0.0150    -0.0010     2.3420 ca         1 75X      -0.568800
      7 C6          -0.6860    -0.0010     1.1380 ca         1 75X       0.706600
      8 O6          -2.0410    -0.0010     1.1280 os         1 75X      -0.439100
      9 N7          -0.3380    -0.0010     3.6780 na         1 75X       0.314700
     10 C8           0.8240    -0.0010     4.3970 cc         1 75X       0.292400
     11 N9           1.8510    -0.0000     3.5790 nd         1 75X      -0.594700
     12 CAK         -2.6800     0.0000    -0.1510 c3         1 75X       0.219400
     13 CAL         -4.1980    -0.0000     0.0380 c3         1 75X      -0.062700
     14 CAN          0.9090     0.0010     5.8740 ca         1 75X      -0.099900
     15 CAO         -0.2470     0.1420     6.6420 ca         1 75X      -0.118000
     16 CAP         -0.1620     0.1420     8.0210 ca         1 75X      -0.086000
     17 CAQ          1.0640     0.0020     8.6420 ca         1 75X      -0.138000
     18 CAR          2.2200    -0.1400     7.8850 ca         1 75X       0.123100
     19 CAS          2.1460    -0.1470     6.5020 ca         1 75X      -0.054300
     20 CAT          3.3980    -0.3070     5.6790 c3         1 75X       0.044200
     21 OAU          3.4240    -0.2760     8.5020 oh         1 75X      -0.489100
     22 CAV         -4.8820     0.1260    -1.3240 c3         1 75X      -0.020400
     23 CAW         -6.4000     0.1270    -1.1360 c3         1 75X      -0.022900
     24 CAX         -6.8320    -1.1810    -0.4680 c3         1 75X      -0.025400
     25 CAY         -6.1480    -1.3070     0.8950 c3         1 75X      -0.022900
     26 CAZ         -4.6290    -1.3080     0.7060 c3         1 75X      -0.020400
     27 HN2          2.6070    -0.7570    -1.4490 hn         1 75X       0.276300
     28 HN2A         1.8820     0.7660    -1.8480 hn         1 75X       0.276300
     29 HN7         -1.2670    -0.0010     4.0480 hn         1 75X       0.135700
     30 HAK         -2.3850     0.8850    -0.7020 h1         1 75X       0.015700
     31 HAKA        -2.3850    -0.8840    -0.7030 h1         1 75X       0.015700
     32 HAL         -4.4880     0.8350     0.6640 hc         1 75X       0.036700
     33 HAO         -1.2090     0.2520     6.1580 ha         1 75X       0.097000
     34 HAP         -1.0600     0.2520     8.6170 ha         1 75X       0.105000
     35 HAQ          1.1250     0.0050     9.7230 ha         1 75X       0.112000
     36 HAT          3.5400     0.5720     5.0620 hc         1 75X       0.028700
     37 HATA         3.3050    -1.1820     5.0460 hc         1 75X       0.028700
     38 HATB         4.2500    -0.4270     6.3370 hc         1 75X       0.028700
     39 HOAU         3.4560    -1.1050     8.9490 ho         1 75X       0.402000
     40 HAV         -4.5770     1.0530    -1.7950 hc         1 75X       0.017950
     41 HAVA        -4.5970    -0.7130    -1.9480 hc         1 75X       0.017950
     42 HAW         -6.8820     0.2130    -2.1020 hc         1 75X       0.013700
     43 HAWA        -6.6850     0.9620    -0.5080 hc         1 75X       0.013700
     44 HAX         -7.9060    -1.1780    -0.3330 hc         1 75X       0.013700
     45 HAXA        -6.5430    -2.0170    -1.0940 hc         1 75X       0.013700
     46 HAY         -6.4530    -2.2340     1.3660 hc         1 75X       0.013700
     47 HAYA        -6.4330    -0.4680     1.5190 hc         1 75X       0.013700
     48 HAZ         -4.3450    -2.1430     0.0780 hc         1 75X       0.017950
     49 HAZA        -4.1470    -1.3950     1.6720 hc         1 75X       0.017950
@<TRIPOS>BOND
     1     1     2 ar  
     2     1     7 ar  
     3     2     3 1   
     4     2     4 ar  
     5     3    27 1   
     6     3    28 1   
     7     4     5 ar  
     8     5     6 ar  
     9     5    11 1   
    10     6     7 ar  
    11     6     9 1   
    12     7     8 1   
    13     8    12 1   
    14     9    10 1   
    15     9    29 1   
    16    10    11 2   
    17    10    14 1   
    18    12    13 1   
    19    12    30 1   
    20    12    31 1   
    21    13    22 1   
    22    13    26 1   
    23    13    32 1   
    24    14    15 ar  
    25    14    19 ar  
    26    15    16 ar  
    27    15    33 1   
    28    16    17 ar  
    29    16    34 1   
    30    17    18 ar  
    31    17    35 1   
    32    18    19 ar  
    33    18    21 1   
    34    19    20 1   
    35    20    36 1   
    36    20    37 1   
    37    20    38 1   
    38    21    39 1   
    39    22    23 1   
    40    22    40 1   
    41    22    41 1   
    42    23    24 1   
    43    23    42 1   
    44    23    43 1   
    45    24    25 1   
    46    24    44 1   
    47    24    45 1   
    48    25    26 1   
    49    25    46 1   
    50    25    47 1   
    51    26    48 1   
    52    26    49 1   
@<TRIPOS>SUBSTRUCTURE
     1 75X         1 TEMP              0 ****  ****    0 ROOT
