@<TRIPOS>MOLECULE
molecule
   49    52     1     0     0
SMALL
bcc


@<TRIPOS>ATOM
      1 N1           0.0000     0.0000     0.0000 nb         1 75X      -0.837000
      2 C2           1.3270     0.0000     0.0000 ca         1 75X       0.961900
      3 N2           1.9960     0.0000    -1.2140 nv         1 75X      -1.037500
      4 N3           2.0340     0.0000     1.1170 nb         1 75X      -0.749000
      5 C4           1.4220    -0.0000     2.3070 ca         1 75X       0.654300
      6 C5           0.0150    -0.0010     2.3420 ca         1 75X      -0.379800
      7 C6          -0.6860    -0.0010     1.1380 ca         1 75X       0.726600
      8 O6          -2.0410    -0.0010     1.1280 os         1 75X      -0.450100
      9 N7          -0.3380    -0.0010     3.6780 na         1 75X      -0.235300
     10 C8           0.8240    -0.0010     4.3970 cc         1 75X       0.511400
     11 N9           1.8510    -0.0000     3.5790 nd         1 75X      -0.677700
     12 CAK         -2.6800     0.0000    -0.1510 c3         1 75X       0.150400
     13 CAL         -4.1980    -0.0000     0.0380 c3         1 75X      -0.074700
     14 CAN          0.9090     0.0010     5.8740 ca         1 75X      -0.108900
     15 CAO         -0.2470     0.1420     6.6420 ca         1 75X      -0.123000
     16 CAP         -0.1620     0.1420     8.0210 ca         1 75X      -0.122000
     17 CAQ          1.0640     0.0020     8.6420 ca         1 75X      -0.148000
     18 CAR          2.2200    -0.1400     7.8850 ca         1 75X       0.102100
     19 CAS          2.1460    -0.1470     6.5020 ca         1 75X      -0.039300
     20 CAT          3.3980    -0.3070     5.6790 c3         1 75X      -0.045800
     21 OAU          3.4240    -0.2760     8.5020 oh         1 75X      -0.510100
     22 CAV         -4.8820     0.1260    -1.3240 c3         1 75X      -0.073400
     23 CAW         -6.4000     0.1270    -1.1360 c3         1 75X      -0.078900
     24 CAX         -6.8320    -1.1810    -0.4680 c3         1 75X      -0.081400
     25 CAY         -6.1480    -1.3070     0.8950 c3         1 75X      -0.078900
     26 CAZ         -4.6290    -1.3080     0.7060 c3         1 75X      -0.073400
     27 HN2          2.6070    -0.7570    -1.4490 hn         1 75X       0.445800
     28 HN2A         1.8820     0.7660    -1.8480 hn         1 75X       0.445800
     29 HN7         -1.2670    -0.0010     4.0480 hn         1 75X       0.313700
     30 HAK         -2.3850     0.8850    -0.7020 h1         1 75X       0.052700
     31 HAKA        -2.3850    -0.8840    -0.7030 h1         1 75X       0.052700
     32 HAL         -4.4880     0.8350     0.6640 hc         1 75X       0.061700
     33 HAO         -1.2090     0.2520     6.1580 ha         1 75X       0.125000
     34 HAP         -1.0600     0.2520     8.6170 ha         1 75X       0.137000
     35 HAQ          1.1250     0.0050     9.7230 ha         1 75X       0.140000
     36 HAT          3.5400     0.5720     5.0620 hc         1 75X       0.062700
     37 HATA         3.3050    -1.1820     5.0460 hc         1 75X       0.062700
     38 HATB         4.2500    -0.4270     6.3370 hc         1 75X       0.062700
     39 HOAU         3.4560    -1.1050     8.9490 ho         1 75X       0.420000
     40 HAV         -4.5770     1.0530    -1.7950 hc         1 75X       0.045700
     41 HAVA        -4.5970    -0.7130    -1.9480 hc         1 75X       0.045700
     42 HAW         -6.8820     0.2130    -2.1020 hc         1 75X       0.042200
     43 HAWA        -6.6850     0.9620    -0.5080 hc         1 75X       0.042200
     44 HAX         -7.9060    -1.1780    -0.3330 hc         1 75X       0.041700
     45 HAXA        -6.5430    -2.0170    -1.0940 hc         1 75X       0.041700
     46 HAY         -6.4530    -2.2340     1.3660 hc         1 75X       0.042200
     47 HAYA        -6.4330    -0.4680     1.5190 hc         1 75X       0.042200
     48 HAZ         -4.3450    -2.1430     0.0780 hc         1 75X       0.045700
     49 HAZA        -4.1470    -1.3950     1.6720 hc         1 75X       0.045700
@<TRIPOS>BOND
     1     1     2 ar
     2     1     7 ar
     3     2     3 1
     4     2     4 ar
     5     4     5 ar
     6     5     6 ar
     7     5    11 1
     8     6     7 ar
     9     6     9 1
    10     7     8 1
    11     8    12 1
    12     9    10 1
    13    10    11 2
    14    10    14 1
    15    12    13 1
    16    13    22 1
    17    13    26 1
    18    14    15 ar
    19    14    19 ar
    20    15    16 ar
    21    16    17 ar
    22    17    18 ar
    23    18    19 ar
    24    18    21 1
    25    19    20 1
    26    22    23 1
    27    23    24 1
    28    24    25 1
    29    25    26 1
    30     3    27 1
    31     3    28 1
    32     9    29 1
    33    12    30 1
    34    12    31 1
    35    13    32 1
    36    15    33 1
    37    16    34 1
    38    17    35 1
    39    20    36 1
    40    20    37 1
    41    20    38 1
    42    21    39 1
    43    22    40 1
    44    22    41 1
    45    23    42 1
    46    23    43 1
    47    24    44 1
    48    24    45 1
    49    25    46 1
    50    25    47 1
    51    26    48 1
    52    26    49 1
@<TRIPOS>SUBSTRUCTURE
     1 75X         1 TEMP              0 ****  ****    0 ROOT
