@<TRIPOS>MOLECULE
75Y
   33    34     1     0     0
SMALL
bcc


@<TRIPOS>ATOM
      1 C4           0.0000     0.0000     0.0000 ca         1 75Y      -0.252500
      2 C5           1.3820     0.0000     0.0000 ca         1 75Y       0.036000
      3 C6           2.0750     0.0000     1.1940 ca         1 75Y      -0.138000
      4 C20          5.2760     2.8680     5.0550 c          1 75Y       0.617700
      5 C16          6.3810     1.0250     4.5970 c          1 75Y       0.617700
      6 C18          7.3590     2.1340     4.5440 cc         1 75Y      -0.148700
      7 C19          6.6840     3.2610     4.8240 cd         1 75Y      -0.148700
      8 O21          4.3640     3.6220     5.3300 o          1 75Y      -0.597000
      9 N15          5.1750     1.5360     4.9040 n          1 75Y      -0.133400
     10 C14          3.9420     0.7600     5.0500 c3         1 75Y      -0.001000
     11 C12          3.2420     0.6720     3.7180 c          1 75Y       0.555100
     12 O13          3.7270     1.2050     2.7420 o          1 75Y      -0.601100
     13 C1           1.3810     0.0000     2.3980 ca         1 75Y       0.019600
     14 C2          -0.0080    -0.0000     2.3940 ca         1 75Y      -0.138000
     15 C3          -0.6940     0.0060     1.1950 ca         1 75Y       0.036000
     16 S18         -0.8790    -0.0010    -1.5270 sy         1 75Y       0.933200
     17 O9          -2.1630     0.5440    -1.2510 o          1 75Y      -0.495800
     18 O10          0.0030     0.5440    -2.4980 o          1 75Y      -0.495800
     19 N8          -1.1240    -1.5820    -1.9520 nz         1 75Y      -0.133500
     20 H1           1.9230    -0.0020    -0.9390 ha         1 75Y       0.125500
     21 H2           3.1580    -0.0000     1.1930 ha         1 75Y       0.152500
     22 H3           8.3610     1.9920     4.9320 ha         1 75Y       0.150500
     23 H4           7.0910     4.2630     4.8720 ha         1 75Y       0.150500
     24 H5           3.2920     1.2470     5.7670 h1         1 75Y       0.058700
     25 H6           4.1820    -0.2370     5.3980 h1         1 75Y       0.058700
     26 H7           1.7050    -0.4830     4.4020 hn         1 75Y       0.184500
     27 H8          -0.5530     0.0020     3.3310 ha         1 75Y       0.152500
     28 H9          -1.7780     0.0060     1.1920 ha         1 75Y       0.125500
     29 H10         -1.6250    -1.6210    -2.8180 hn         1 75Y       0.312800
     30 H11         -1.6550    -2.0410    -1.2390 hn         1 75Y       0.312800
     31 N11          2.0790     0.0010     3.6100 ns         1 75Y      -0.032100
     32 H83         -0.2400    -2.0400    -2.0570 hn         1 75Y       0.312800
     33 O17          6.6250    -0.1480     4.3960 o          1 75Y      -0.597000
@<TRIPOS>BOND
     1     1     2 ar  
     2     1    15 ar  
     3     1    16 1   
     4     2     3 ar  
     5     2    20 1   
     6     3    13 ar  
     7     3    21 1   
     8     4     7 1   
     9     4     8 2   
    10     4     9 1   
    11     5     6 1   
    12     5     9 1   
    13     5    33 2   
    14     6     7 2   
    15     6    22 1   
    16     7    23 1   
    17     9    10 1   
    18    10    11 1   
    19    10    24 1   
    20    10    25 1   
    21    11    12 2   
    22    11    31 1   
    23    13    14 ar  
    24    13    31 1   
    25    14    15 ar  
    26    14    27 1   
    27    15    28 1   
    28    16    17 2   
    29    16    18 2   
    30    16    19 1   
    31    19    29 1   
    32    19    30 1   
    33    19    32 1   
    34    26    31 1   
@<TRIPOS>SUBSTRUCTURE
     1 75Y         1 TEMP              0 ****  ****    0 ROOT
