@<TRIPOS>MOLECULE
molecule
   33    34     1     0     0
SMALL
bcc


@<TRIPOS>ATOM
      1 C4           0.0000     0.0000     0.0000 ca         1 75Y      -0.367500
      2 C5           1.3820     0.0000     0.0000 ca         1 75Y      -0.008500
      3 C6           2.0750     0.0000     1.1940 ca         1 75Y      -0.156500
      4 C20          5.2760     2.8680     5.0550 c          1 75Y       0.690700
      5 C16          6.3810     1.0250     4.5970 c          1 75Y       0.690700
      6 C18          7.3590     2.1340     4.5440 cc         1 75Y      -0.171700
      7 C19          6.6840     3.2610     4.8240 cd         1 75Y      -0.171700
      8 O21          4.3640     3.6220     5.3300 o          1 75Y      -0.558500
      9 N15          5.1750     1.5360     4.9040 n          1 75Y      -0.497400
     10 C14          3.9420     0.7600     5.0500 c3         1 75Y       0.052000
     11 C12          3.2420     0.6720     3.7180 c          1 75Y       0.646100
     12 O13          3.7270     1.2050     2.7420 o          1 75Y      -0.557100
     13 C1           1.3810     0.0000     2.3980 ca         1 75Y       0.164600
     14 C2          -0.0080    -0.0000     2.3940 ca         1 75Y      -0.156500
     15 C3          -0.6940     0.0060     1.1950 ca         1 75Y      -0.008500
     16 S18         -0.8790    -0.0010    -1.5270 sy         1 75Y       1.224200
     17 O9          -2.1630     0.5440    -1.2510 o          1 75Y      -0.520300
     18 O10          0.0030     0.5440    -2.4980 o          1 75Y      -0.520300
     19 N8          -1.1240    -1.5820    -1.9520 nz         1 75Y      -0.806500
     20 H1           1.9230    -0.0020    -0.9390 ha         1 75Y       0.158000
     21 H2           3.1580    -0.0000     1.1930 ha         1 75Y       0.181500
     22 H3           8.3610     1.9920     4.9320 ha         1 75Y       0.190000
     23 H4           7.0910     4.2630     4.8720 ha         1 75Y       0.190000
     24 H5           3.2920     1.2470     5.7670 h1         1 75Y       0.098200
     25 H6           4.1820    -0.2370     5.3980 h1         1 75Y       0.098200
     26 H7           1.7050    -0.4830     4.4020 hn         1 75Y       0.342500
     27 H8          -0.5530     0.0020     3.3310 ha         1 75Y       0.181500
     28 H9          -1.7780     0.0060     1.1920 ha         1 75Y       0.158000
     29 H10         -1.6250    -1.6210    -2.8180 hn         1 75Y       0.490800
     30 H11         -1.6550    -2.0410    -1.2390 hn         1 75Y       0.490800
     31 N11          2.0790     0.0010     3.6100 ns         1 75Y      -0.479100
     32 H83         -0.2400    -2.0400    -2.0570 hn         1 75Y       0.490800
     33 O17          6.6250    -0.1480     4.3960 o          1 75Y      -0.558500
@<TRIPOS>BOND
     1     8     4 2   
     2     7     4 1   
     3     7     6 2   
     4     4     9 1   
     5     6     5 1   
     6     9     5 1   
     7     9    10 1   
     8     5    33 2   
     9    10    11 1   
    10    11    12 2   
    11    11    31 1   
    12    31    13 1   
    13    13     3 ar  
    14    13    14 ar  
    15     3     2 ar  
    16    14    15 ar  
    17     2     1 ar  
    18    15     1 ar  
    19     1    16 1   
    20    19    16 1   
    21    18    16 2   
    22    16    17 2   
    23     2    20 1   
    24     3    21 1   
    25     6    22 1   
    26     7    23 1   
    27    10    24 1   
    28    10    25 1   
    29    31    26 1   
    30    14    27 1   
    31    15    28 1   
    32    19    29 1   
    33    19    30 1   
    34    32    19 1   
@<TRIPOS>SUBSTRUCTURE
     1 75Y         1 TEMP              0 ****  ****    0 ROOT
