@<TRIPOS>MOLECULE
molecule
   53    57     1     0     0
SMALL
bcc


@<TRIPOS>ATOM
      1 C4           0.0000     0.0000     0.0000 cp         1 75Z      -0.041000
      2 C5          -0.7410     0.0070    -1.2850 cp         1 75Z      -0.050000
      3 C6          -0.7310    -0.0010     3.6910 c          1 75Z       0.673700
      4 C8           1.4030     0.0000     2.4040 ca         1 75Z       0.160100
      5 C13         -0.7390     0.0120    -3.6860 ca         1 75Z      -0.163000
      6 C15         -2.8200     0.0060    -2.4850 ca         1 75Z      -0.163000
      7 C20         -4.3140    -0.0030     4.6890 c3         1 75Z      -0.106700
      8 C21         -5.0640    -0.0030     5.9970 cc         1 75Z       0.353800
      9 C26         -7.4290     1.1600     8.4780 ca         1 75Z      -0.145500
     10 C28         -9.0330     2.9210     8.7840 ca         1 75Z      -0.125000
     11 C1           1.3970     0.0000     0.0000 ca         1 75Z      -0.122000
     12 C2           0.0040    -0.0000     2.4110 ca         1 75Z      -0.154600
     13 C3          -0.6960     0.0000     1.2030 ca         1 75Z      -0.096000
     14 O7          -0.1210    -0.0010     4.7410 o          1 75Z      -0.570100
     15 C9           2.0920     0.0000     1.1940 ca         1 75Z       0.059100
     16 O10          3.4520     0.0010     1.1870 oh         1 75Z      -0.514100
     17 O11          2.0880     0.0000     3.5760 oh         1 75Z      -0.483100
     18 C12         -0.0460     0.0060    -2.4920 ca         1 75Z      -0.095000
     19 C14         -2.1240     0.0170    -3.6840 ca         1 75Z       0.136900
     20 C16         -2.1340     0.0060    -1.2880 ca         1 75Z      -0.095000
     21 F17         -2.8000     0.0180    -4.8540 f          1 75Z      -0.137900
     22 N18         -2.0790    -0.0010     3.6950 ns         1 75Z      -0.595900
     23 C19         -2.8090    -0.0020     4.9650 c3         1 75Z       0.119000
     24 N22         -6.0100     0.8950     6.3830 na         1 75Z      -0.432700
     25 C23         -6.4110     0.5010     7.6310 cc         1 75Z       0.429000
     26 N24         -5.7180    -0.5740     7.9340 nd         1 75Z      -0.343000
     27 N25         -4.9280    -0.8700     6.9640 nd         1 75Z      -0.342000
     28 C27         -8.0860     2.3060     8.0140 ca         1 75Z      -0.109000
     29 C29         -7.7350     0.6360     9.7280 ca         1 75Z      -0.016000
     30 C30         -8.7000     1.2610    10.5180 ca         1 75Z       0.088400
     31 C31         -9.3500     2.4120    10.0370 ca         1 75Z      -0.088200
     32 N32        -10.2340     2.7900    11.0270 na         1 75Z      -0.267300
     33 C33        -10.1060     1.8990    12.0460 cd         1 75Z       0.430700
     34 N34         -9.2100     1.0040    11.7510 nc         1 75Z      -0.590100
     35 H1          -0.1990     0.0160    -4.6250 ha         1 75Z       0.148000
     36 H2          -3.9030     0.0080    -2.4880 ha         1 75Z       0.148000
     37 H3          -4.5770    -0.8870     4.1220 hc         1 75Z       0.058200
     38 H4          -4.5770     0.8820     4.1220 hc         1 75Z       0.058200
     39 H6          -9.5360     3.8070     8.4160 ha         1 75Z       0.130000
     40 H7           1.9370    -0.0000    -0.9390 ha         1 75Z       0.147000
     41 H8          -1.7770     0.0670     1.2030 ha         1 75Z       0.132000
     42 H9           3.7650     0.8640     0.9740 ho         1 75Z       0.428000
     43 H10          2.5110    -0.8340     3.6940 ho         1 75Z       0.436000
     44 H11          1.0370     0.0020    -2.4940 ha         1 75Z       0.137500
     45 H12         -2.6790    -0.0030    -0.3520 ha         1 75Z       0.137500
     46 H13         -2.5820    -0.0060     2.8290 hn         1 75Z       0.306500
     47 H14         -2.5450    -0.8870     5.5310 h1         1 75Z       0.072200
     48 H15         -2.5460     0.8820     5.5330 h1         1 75Z       0.072200
     49 H16         -6.4960     1.5330     5.7830 hn         1 75Z       0.305700
     50 H21         -7.8430     2.7080     7.0370 ha         1 75Z       0.123000
     51 H22         -7.1390    -0.1700    10.1390 ha         1 75Z       0.174000
     52 H23        -10.8540     3.5750    11.0000 hn         1 75Z       0.304700
     53 H24        -10.6700     1.9300    12.9710 h5         1 75Z       0.076800
@<TRIPOS>BOND
     1    21    19 1
     2     6    19 ar
     3     6    20 ar
     4    19     5 ar
     5    20     2 ar
     6     5    18 ar
     7     2    18 ar
     8     2     1 1
     9     1    13 ar
    10     1    11 ar
    11    13    12 ar
    12    11    15 ar
    13     7     8 1
    14     7    23 1
    15    27     8 2
    16    27    26 1
    17    14     3 2
    18     8    24 1
    19    26    25 2
    20    12     3 1
    21    12     4 ar
    22     3    22 1
    23    15     4 ar
    24    15    16 1
    25     4    17 1
    26    22    23 1
    27    24    25 1
    28    25     9 1
    29     9    28 ar
    30     9    29 ar
    31    28    10 ar
    32    29    30 ar
    33    10    31 ar
    34    30    31 ar
    35    30    34 1
    36    31    32 1
    37    34    33 2
    38    32    33 1
    39     5    35 1
    40     6    36 1
    41     7    37 1
    42     7    38 1
    43    10    39 1
    44    11    40 1
    45    13    41 1
    46    16    42 1
    47    17    43 1
    48    18    44 1
    49    20    45 1
    50    22    46 1
    51    23    47 1
    52    23    48 1
    53    24    49 1
    54    28    50 1
    55    29    51 1
    56    32    52 1
    57    33    53 1
@<TRIPOS>SUBSTRUCTURE
     1 75Z         1 TEMP              0 ****  ****    0 ROOT
