@<TRIPOS>MOLECULE
molecule
   42    45     1     0     0
SMALL
bcc


@<TRIPOS>ATOM
      1 C1           0.0000     0.0000     0.0000 c3         1 760      -0.124700
      2 C2           1.5260     0.0000     0.0000 c3         1 760      -0.084400
      3 C3           2.0110     0.0000     1.4540 c3         1 760      -0.085400
      4 C4           1.6960     1.3640     2.0650 c3         1 760      -0.021100
      5 C5          -0.2880     2.7370     2.6210 ca         1 760       0.154600
      6 C6          -2.2540     4.1040     3.1730 ca         1 760      -0.117000
      7 C7          -3.5590     4.4190     2.9400 ca         1 760      -0.128000
      8 C8          -4.2890     3.7530     1.9610 ca         1 760      -0.122000
      9 C9          -3.7220     2.7690     1.2100 ca         1 760      -0.163300
     10 N10         -1.7930     1.4570     0.7020 nb         1 760      -0.700000
     11 C11         -0.5320     1.1060     0.8790 ca         1 760       0.456600
     12 C12          0.2540     1.7290     1.8330 ca         1 760      -0.184600
     13 C13         -1.6390     3.0970     2.4180 ca         1 760      -0.189300
     14 C14         -2.3790     2.4160     1.4210 ca         1 760       0.430600
     15 N15          0.4770     3.3750     3.5840 nu         1 760      -0.793600
     16 C17          0.9830     4.6090     2.9720 c3         1 760       0.248100
     17 C18          1.9300     5.2920     3.9250 ca         1 760      -0.099300
     18 C19          3.2790     4.9950     3.8880 ca         1 760      -0.114500
     19 C20          4.1480     5.6210     4.7620 ca         1 760      -0.129000
     20 C21          3.6690     6.5430     5.6720 ca         1 760      -0.123000
     21 C22          2.3200     6.8400     5.7080 ca         1 760      -0.129000
     22 C23          1.4510     6.2180     4.8320 ca         1 760      -0.114500
     23 H12         -0.3560    -0.9530     0.3730 hc         1 760       0.063700
     24 H11         -0.3560     0.1480    -1.0120 hc         1 760       0.063700
     25 H22A         1.8900    -0.8870    -0.5040 hc         1 760       0.046200
     26 H21A         1.8900     0.8870    -0.5040 hc         1 760       0.046200
     27 H32          3.0800    -0.1730     1.4810 hc         1 760       0.045700
     28 H31          1.4960    -0.7750     2.0090 hc         1 760       0.045700
     29 H42          2.3310     2.1130     1.6080 hc         1 760       0.058200
     30 H41          1.8870     1.3280     3.1310 hc         1 760       0.058200
     31 H6          -1.6950     4.6290     3.9380 ha         1 760       0.127000
     32 H7          -4.0340     5.1980     3.5250 ha         1 760       0.129000
     33 H8          -5.3260     4.0200     1.7940 ha         1 760       0.132000
     34 H9          -4.3050     2.2600     0.4510 ha         1 760       0.148000
     35 H15          0.1800     3.3750     4.5400 hn         1 760       0.425800
     36 H171         1.5050     4.3700     2.0540 h1         1 760       0.045700
     37 H172         0.1530     5.2700     2.7530 h1         1 760       0.045700
     38 H19          3.6550     4.2720     3.1750 ha         1 760       0.130500
     39 H20          5.2060     5.3870     4.7330 ha         1 760       0.130500
     40 H21          4.3500     7.0330     6.3580 ha         1 760       0.130000
     41 H22          1.9440     7.5650     6.4200 ha         1 760       0.130500
     42 H23          0.3930     6.4510     4.8610 ha         1 760       0.130500
@<TRIPOS>BOND
     1     1     2 1   
     2     1    11 1   
     3     1    23 1   
     4     1    24 1   
     5     2     3 1   
     6     2    25 1   
     7     2    26 1   
     8     3     4 1   
     9     3    27 1   
    10     3    28 1   
    11     4    12 1   
    12     4    29 1   
    13     4    30 1   
    14     5    12 ar  
    15     5    13 ar  
    16     5    15 1   
    17     6     7 ar  
    18     6    13 ar  
    19     6    31 1   
    20     7     8 ar  
    21     7    32 1   
    22     8     9 ar  
    23     8    33 1   
    24     9    14 ar  
    25     9    34 1   
    26    10    11 ar  
    27    10    14 ar  
    28    11    12 ar  
    29    13    14 ar  
    30    15    16 1   
    31    15    35 1   
    32    16    17 1   
    33    16    36 1   
    34    16    37 1   
    35    17    18 ar  
    36    17    22 ar  
    37    18    19 ar  
    38    18    38 1   
    39    19    20 ar  
    40    19    39 1   
    41    20    21 ar  
    42    20    40 1   
    43    21    22 ar  
    44    21    41 1   
    45    22    42 1   
@<TRIPOS>SUBSTRUCTURE
     1 760         1 TEMP              0 ****  ****    0 ROOT
