@<TRIPOS>MOLECULE
molecule
   26    27     1     0     0
SMALL
bcc


@<TRIPOS>ATOM
      1 C1           0.0000     0.0000     0.0000 ca         1 761      -0.164000
      2 C2           1.3610     0.0000     0.0000 ca         1 761      -0.116000
      3 C3           2.0580     0.0000     1.2210 ca         1 761      -0.013000
      4 C4           1.3270     0.0000     2.4370 ca         1 761      -0.082000
      5 C5          -0.0790     0.0010     2.3950 ca         1 761      -0.103000
      6 C6          -0.7180     0.0010     1.1950 ca         1 761      -0.185000
      7 C11          3.4620    -0.0010     1.2520 ca         1 761      -0.205000
      8 C12          4.1180    -0.0020     2.4490 ca         1 761       0.121600
      9 C13          3.3990    -0.0080     3.6650 ca         1 761      -0.133600
     10 C14          2.0140     0.0000     3.6590 ca         1 761      -0.097000
     11 C17          4.1260    -0.0090     4.9470 c          1 761       0.887200
     12 O18          5.3380     0.0750     4.9580 o          1 761      -0.837800
     13 O19          3.4480    -0.1030     6.1070 o          1 761      -0.837800
     14 N20          5.5110    -0.0030     2.4720 ns         1 761      -0.451100
     15 C21          6.2010    -0.5080     1.4320 c          1 761       0.555100
     16 O22          5.6140    -1.0620     0.5250 o          1 761      -0.643100
     17 C23          7.6890    -0.3900     1.3960 c          1 761       0.833600
     18 O24          8.2760     0.1630     2.3020 o          1 761      -0.823800
     19 O25          8.3790    -0.8950     0.3570 o          1 761      -0.823800
     20 H11         -0.5330     0.0000    -0.9430 ha         1 761       0.092000
     21 H21          1.9050    -0.0010    -0.9370 ha         1 761       0.120000
     22 H51         -0.6510     0.0020     3.3160 ha         1 761       0.110000
     23 H61         -1.8010     0.0010     1.1660 ha         1 761       0.091000
     24 H111         4.0240     0.0040     0.3260 ha         1 761       0.171000
     25 H141         1.4640    -0.0050     4.5930 ha         1 761       0.148000
     26 H20          5.9980     0.4170     3.2390 hn         1 761       0.387500
@<TRIPOS>BOND
     1     1     2 ar  
     2     1     6 ar  
     3     1    20 1   
     4     2     3 ar  
     5     2    21 1   
     6     3     4 ar  
     7     3     7 ar  
     8     4     5 ar  
     9     4    10 ar  
    10     5     6 ar  
    11     5    22 1   
    12     6    23 1   
    13     7     8 ar  
    14     7    24 1   
    15     8     9 ar  
    16     8    14 1   
    17     9    10 ar  
    18     9    11 1   
    19    10    25 1   
    20    11    12 1   
    21    11    13 1   
    22    14    15 1   
    23    14    26 1   
    24    15    16 2   
    25    15    17 1   
    26    17    18 1   
    27    17    19 1   
@<TRIPOS>SUBSTRUCTURE
     1 761         1 TEMP              0 ****  ****    0 ROOT
