@<TRIPOS>MOLECULE
762
   41    44     1     0     0
SMALL
bcc


@<TRIPOS>ATOM
      1 C1          0.0820   -0.0490   -0.0800 ca        1 762     -0.276900
      2 C2          1.4450   -0.3980   -0.0290 ca        1 762      0.019400
      3 CL2         2.3460   -0.6290   -1.4620 cl        1 762     -0.117400
      4 C3          2.1260   -0.5170    1.1850 ca        1 762     -0.134000
      5 C4          1.4120   -0.2800    2.3560 ca        1 762      0.011000
      6 C5         -0.0200    0.0840    2.3260 ca        1 762     -0.006000
      7 C6         -0.6560    0.1940    1.0930 ca        1 762     -0.106000
      8 C7         -0.6380    0.0920   -1.3610 ce        1 762      0.536400
      9 N1         -0.5590   -0.8930   -2.2880 nh        1 762     -0.483600
     10 N2         -1.3890    1.2060   -1.5530 nh        1 762     -0.467700
     11 N3          1.7540   -0.3050    3.6930 na        1 762     -0.281600
     12 N4         -0.4970    0.2570    3.6150 nc        1 762     -0.308600
     13 C8          0.5770    0.0410    4.4530 cc        1 762      0.329500
     14 C1'         0.6120    0.1190    5.8710 cd        1 762     -0.340200
     15 C2'         1.5820   -0.6100    6.6040 cd        1 762     -0.034000
     16 C3'         1.5990   -0.6120    7.9700 cc        1 762     -0.254000
     17 C4'         0.6110    0.1150    8.6860 cc        1 762     -0.050000
     18 C5'        -0.3440    0.8530    8.0450 cd        1 762     -0.177400
     19 C6'        -0.3580    0.9530    6.5720 c         1 762      0.603500
     20 O6'        -1.1260    1.7420    5.9810 o         1 762     -0.627100
     21 C1B        -1.3660    1.5500    8.8240 ca        1 762     -0.010800
     22 C2B        -1.9270    0.9300    9.9540 ca        1 762     -0.118500
     23 C3B        -2.8800    1.5900   10.7250 ca        1 762     -0.141500
     24 C4B        -3.2910    2.8770   10.3820 ca        1 762     -0.145000
     25 C5B        -2.7470    3.4980    9.2580 ca        1 762     -0.141500
     26 C6B        -1.7940    2.8420    8.4830 ca        1 762     -0.118500
     27 HC3         3.1930   -0.7800    1.2060 ha        1 762      0.158000
     28 HC6        -1.7280    0.4380    1.0600 ha        1 762      0.150000
     29 HH11        0.0290   -1.6770   -2.0960 hn        1 762      0.316700
     30 HH12       -0.9810   -0.8280   -3.1850 hn        1 762      0.316700
     31 HH21       -1.4240    1.8810   -0.8170 hn        1 762      0.316700
     32 HH22       -1.9570    1.3480   -2.3550 hn        1 762      0.316700
     33 HN3         2.6460   -0.4900    4.0680 hn        1 762      0.310700
     34 HC2'        2.3270   -1.2220    6.0710 ha        1 762      0.087000
     35 HC3'        2.3520   -1.1800    8.5300 ha        1 762      0.116000
     36 HC4'        0.6340    0.0680    9.7870 ha        1 762      0.115000
     37 H2B        -1.6160   -0.0900   10.2240 ha        1 762      0.142000
     38 H3B        -3.3110    1.0920   11.6050 ha        1 762      0.119000
     39 H4B        -4.0430    3.3970   10.9920 ha        1 762      0.118000
     40 H5B        -3.0740    4.5090    8.9780 ha        1 762      0.119000
     41 H6B        -1.3830    3.3250    7.5810 ha        1 762      0.142000
@<TRIPOS>BOND
     1    1    2 ar  
     2    1    7 ar  
     3    1    8 1   
     4    2    3 1   
     5    2    4 ar  
     6    4    5 ar  
     7    4   27 1   
     8    5    6 ar  
     9    5   11 2   
    10    6    7 ar  
    11    6   12 2   
    12    7   28 1   
    13    8    9 2   
    14    8   10 1   
    15    9   29 1   
    16    9   30 1   
    17   10   31 1   
    18   10   32 1   
    19   11   13 1   
    20   11   33 1   
    21   12   13 1   
    22   13   14 2   
    23   14   15 1   
    24   14   19 1   
    25   15   16 2   
    26   15   34 1   
    27   16   17 1   
    28   16   35 1   
    29   17   18 2   
    30   17   36 1   
    31   18   19 1   
    32   18   21 1   
    33   19   20 2   
    34   21   22 ar  
    35   21   26 ar  
    36   22   23 ar  
    37   22   37 1   
    38   23   24 ar  
    39   23   38 1   
    40   24   25 ar  
    41   24   39 1   
    42   25   26 ar  
    43   25   40 1   
    44   26   41 1   
@<TRIPOS>SUBSTRUCTURE
     1 762         1 TEMP              0 ****  ****    0 ROOT
