@<TRIPOS>MOLECULE
molecule
   42    45     1     0     0
SMALL
bcc


@<TRIPOS>ATOM
      1 C1           0.0000     0.0000     0.0000 ca         1 762      -0.155900
      2 C2           1.4010     0.0000     0.0000 ca         1 762       0.051400
      3 Cl2          2.2660     0.0140    -1.5050 cl         1 762      -0.100400
      4 C3           2.0950     0.0000     1.1890 ca         1 762      -0.113000
      5 C4           1.4080    -0.0130     2.3960 ca         1 762       0.006000
      6 C5           0.0000    -0.0180     2.4090 ca         1 762      -0.018000
      7 C6          -0.7000    -0.0120     1.2020 ca         1 762      -0.080000
      8 C7          -0.7370     0.0070    -1.2810 ce         1 762       0.070800
      9 N1          -0.5110    -0.9460    -2.1840 nz         1 762      -0.674600
     10 N2          -1.6270     0.9650    -1.5320 nv         1 762      -0.473100
     11 N3           1.8040    -0.0210     3.7170 na         1 762      -0.219600
     12 N4          -0.3890    -0.0300     3.7080 nc         1 762      -0.264600
     13 C8           0.6680    -0.0320     4.4830 cc         1 762       0.204500
     14 C1'          0.6390    -0.0420     5.9600 cd         1 762      -0.026000
     15 C2'          1.5570    -0.8160     6.6730 cd         1 762      -0.141000
     16 C3'          1.5310    -0.8260     8.0530 cc         1 762      -0.045000
     17 C4'          0.5980    -0.0720     8.7410 cc         1 762      -0.133000
     18 C5'         -0.3250     0.7040     8.0460 cd         1 762       0.024800
     19 C6'         -0.3040     0.7270     6.6490 c          1 762       0.424100
     20 O6'         -1.2010     1.4810     5.9650 o          1 762      -0.472100
     21 C1B         -1.3250     1.5110     8.7880 ca         1 762      -0.079800
     22 C2B         -2.0920     0.9240     9.7920 ca         1 762      -0.086000
     23 C3B         -3.0210     1.6790    10.4790 ca         1 762      -0.130500
     24 C4B         -3.1910     3.0170    10.1710 ca         1 762      -0.094000
     25 C5B         -2.4330     3.6060     9.1750 ca         1 762      -0.130500
     26 C6B         -1.4970     2.8610     8.4870 ca         1 762      -0.086000
     27 HC3          3.1790     0.0000     1.1830 ha         1 762       0.162000
     28 HC6         -1.7830    -0.0120     1.2010 ha         1 762       0.165000
     29 HH11        -1.3840    -1.3060    -2.5160 hn         1 762       0.438800
     30 HH12         0.0050    -0.5630    -2.9520 hn         1 762       0.438800
     31 HH21        -2.1260     0.9700    -2.4000 hn         1 762       0.306200
     32 HH22        -1.7970     1.6810    -0.8540 hn         1 762       0.306200
     33 HN3          2.7460    -0.0200     4.0540 hn         1 762       0.321700
     34 HC2'         2.2910    -1.4090     6.1420 ha         1 762       0.142000
     35 HC3'         2.2460    -1.4280     8.6000 ha         1 762       0.155000
     36 HC4'         0.5840    -0.0890     9.8240 ha         1 762       0.162000
     37 H2B         -1.9590    -0.1240    10.0330 ha         1 762       0.139500
     38 H3B         -3.6180     1.2240    11.2600 ha         1 762       0.142500
     39 H4B         -3.9230     3.6060    10.7100 ha         1 762       0.141000
     40 H5B         -2.5690     4.6540     8.9410 ha         1 762       0.142500
     41 H6B         -0.9040     3.3230     7.7070 ha         1 762       0.139500
     42 H13          0.0350    -1.6760    -1.7700 hn         1 762       0.438800
@<TRIPOS>BOND
     1     1     2 ar  
     2     1     7 ar  
     3     1     8 1   
     4     2     3 1   
     5     2     4 ar  
     6     4     5 ar  
     7     4    27 1   
     8     5     6 ar  
     9     5    11 2   
    10     6     7 ar  
    11     6    12 2   
    12     7    28 1   
    13     8     9 1   
    14     8    10 2   
    15     9    29 1   
    16     9    30 1   
    17    10    31 1   
    18    10    32 1   
    19    11    13 1   
    20    11    33 1   
    21    12    13 1   
    22    13    14 2   
    23    14    15 1   
    24    14    19 1   
    25    15    16 2   
    26    15    34 1   
    27    16    17 1   
    28    16    35 1   
    29    17    18 2   
    30    17    36 1   
    31    18    19 1   
    32    18    21 1   
    33    19    20 2   
    34    21    22 ar  
    35    21    26 ar  
    36    22    23 ar  
    37    22    37 1   
    38    23    24 ar  
    39    23    38 1   
    40    24    25 ar  
    41    24    39 1   
    42    25    26 ar  
    43    25    40 1   
    44    26    41 1   
    45    42     9 1   
@<TRIPOS>SUBSTRUCTURE
     1 762         1 TEMP              0 ****  ****    0 ROOT
