@<TRIPOS>MOLECULE
molecule
   54    57     1     0     0
SMALL
bcc


@<TRIPOS>ATOM
      1 C4           0.0000     0.0000     0.0000 ca         1 763      -0.096000
      2 C5           1.3960     0.0000     0.0000 ca         1 763      -0.155600
      3 C6           2.0910     0.0000     1.2150 ca         1 763       0.158100
      4 C7          -2.1760     0.0080     1.2070 cp         1 763      -0.052000
      5 C8          -2.8720     0.0140     2.4130 ca         1 763      -0.094500
      6 C10         -2.8760     0.0070     0.0020 ca         1 763      -0.094500
      7 C13         -4.2560     0.0130     0.0090 ca         1 763      -0.162500
      8 C20          1.2060    -0.0040    -4.8780 c3         1 763      -0.102400
      9 C21          1.9730    -0.0050    -6.2010 c3         1 763       0.152400
     10 C26         -1.3900     0.0030   -10.5430 cc         1 763      -0.196200
     11 C28          0.8660    -0.0090   -10.9640 ca         1 763      -0.012200
     12 C1           1.3890     0.0010     2.4180 ca         1 763       0.060100
     13 C2           0.0080     0.0020     2.4130 ca         1 763      -0.121000
     14 C3          -0.6920     0.0070     1.2040 cp         1 763      -0.039000
     15 C9          -4.2520     0.0150     2.4110 ca         1 763      -0.162500
     16 C12         -4.9440     0.0190     1.2110 ca         1 763       0.138900
     17 O14          2.0650     0.0010     3.5980 oh         1 763      -0.514100
     18 O15          3.4490    -0.0010     1.2210 oh         1 763      -0.483100
     19 C16          2.1360    -0.0010    -1.2760 c          1 763       0.674700
     20 N17          1.4640    -0.0020    -2.4450 ns         1 763      -0.589900
     21 O18          3.3520    -0.0020    -1.2740 o          1 763      -0.579100
     22 C19          2.1980    -0.0040    -3.7120 c3         1 763       0.117000
     23 O22          1.0460    -0.0060    -7.2880 os         1 763      -0.442600
     24 C23          1.6640    -0.0070    -8.5780 c3         1 763       0.271100
     25 N24          0.6280    -0.0080    -9.6140 na         1 763      -0.074400
     26 C25         -0.7210     0.0030    -9.3780 cd         1 763      -0.077100
     27 C27         -0.3890    -0.0100   -11.6100 ca         1 763      -0.227100
     28 C29         -0.4350    -0.0190   -13.0020 ca         1 763       0.470200
     29 N30          0.6820    -0.0290   -13.7000 nb         1 763      -0.712000
     30 C31          1.8740    -0.0290   -13.1260 ca         1 763       0.428200
     31 C32          2.0120    -0.0190   -11.7560 ca         1 763      -0.271300
     32 H1          -0.5430     0.0000    -0.9380 ha         1 763       0.133000
     33 H2          -2.3310     0.0130     3.3520 ha         1 763       0.137500
     34 H3          -2.3380     0.0020    -0.9380 ha         1 763       0.137500
     35 H4          -4.8010     0.0140    -0.9260 ha         1 763       0.148500
     36 H5           0.5820    -0.8880    -4.8210 hc         1 763       0.059700
     37 H6           0.5840     0.8810    -4.8220 hc         1 763       0.059700
     38 H7           2.5960     0.8790    -6.2580 h1         1 763       0.033700
     39 H8           2.5960    -0.8900    -6.2560 h1         1 763       0.033700
     40 H10         -0.5350     0.0050     3.3510 ha         1 763       0.147000
     41 H11         -4.7950     0.0200     3.3490 ha         1 763       0.148500
     42 H12          2.0360    -0.8620     3.9770 ho         1 763       0.428000
     43 H13          3.7620     0.8340     1.5270 ho         1 763       0.435000
     44 H14          0.4630    -0.0010    -2.4470 hn         1 763       0.312500
     45 H15          2.8220     0.8790    -3.7700 h1         1 763       0.056200
     46 H16          2.8200    -0.8890    -3.7680 h1         1 763       0.056200
     47 H17          2.2800     0.8770    -8.6840 h2         1 763       0.041200
     48 H18          2.2800    -0.8920    -8.6830 h2         1 763       0.041200
     49 H19         -1.1810     0.0100    -8.3970 h4         1 763       0.179000
     50 H20         -1.3910    -0.0190   -13.5110 h4         1 763       0.024100
     51 H21          2.7610    -0.0380   -13.7470 h4         1 763       0.022100
     52 H22          2.9950    -0.0200   -11.3020 ha         1 763       0.129000
     53 F11         -6.2960     0.0250     1.2130 f          1 763      -0.137900
     54 H9          -2.4660     0.0100   -10.6680 ha         1 763       0.158000
@<TRIPOS>BOND
     1    53    16 1
     2     7    16 ar
     3     7     6 ar
     4    16    15 ar
     5     6     4 ar
     6    15     5 ar
     7     4     5 ar
     8     4    14 1
     9    14     1 ar
    10    14    13 ar
    11     1     2 ar
    12    13    12 ar
    13     8     9 1
    14     8    22 1
    15     9    23 1
    16    21    19 2
    17     2    19 1
    18     2     3 ar
    19    19    20 1
    20    12     3 ar
    21    12    17 1
    22     3    18 1
    23    20    22 1
    24    23    24 1
    25    24    25 1
    26    26    25 1
    27    26    10 2
    28    25    11 1
    29    10    27 1
    30    11    27 ar
    31    11    31 ar
    32    27    28 ar
    33    31    30 ar
    34    28    29 ar
    35    30    29 ar
    36     1    32 1
    37     5    33 1
    38     6    34 1
    39     7    35 1
    40     8    36 1
    41     8    37 1
    42     9    38 1
    43     9    39 1
    44    10    54 1
    45    13    40 1
    46    15    41 1
    47    17    42 1
    48    18    43 1
    49    20    44 1
    50    22    45 1
    51    22    46 1
    52    24    47 1
    53    24    48 1
    54    26    49 1
    55    28    50 1
    56    30    51 1
    57    31    52 1
@<TRIPOS>SUBSTRUCTURE
     1 763         1 TEMP              0 ****  ****    0 ROOT
