@<TRIPOS>MOLECULE
763
   54    57     1     0     0
SMALL
bcc


@<TRIPOS>ATOM
      1 C4           0.0000     0.0000     0.0000 ca         1 763      -0.083000
      2 C5           1.3960     0.0000     0.0000 ca         1 763      -0.170600
      3 C6           2.0910     0.0000     1.2150 ca         1 763       0.175100
      4 C7          -2.1760     0.0080     1.2070 cp         1 763      -0.042000
      5 C8          -2.8720     0.0140     2.4130 ca         1 763      -0.075000
      6 C10         -2.8760     0.0070     0.0020 ca         1 763      -0.075000
      7 C13         -4.2560     0.0130     0.0090 ca         1 763      -0.125500
      8 C20          1.2060    -0.0040    -4.8780 c3         1 763      -0.050400
      9 C21          1.9730    -0.0050    -6.2010 c3         1 763       0.230400
     10 C26         -1.3900     0.0030   -10.5430 cc         1 763      -0.149200
     11 C28          0.8660    -0.0090   -10.9640 ca         1 763      -0.188200
     12 C1           1.3890     0.0010     2.4180 ca         1 763       0.067100
     13 C2           0.0080     0.0020     2.4130 ca         1 763      -0.107000
     14 C3          -0.6920     0.0070     1.2040 cp         1 763      -0.037000
     15 C9          -4.2520     0.0150     2.4110 ca         1 763      -0.125500
     16 C12         -4.9440     0.0190     1.2110 ca         1 763       0.106900
     17 O14          2.0650     0.0010     3.5980 oh         1 763      -0.493100
     18 O15          3.4490    -0.0010     1.2210 oh         1 763      -0.461100
     19 C16          2.1360    -0.0010    -1.2760 c          1 763       0.598700
     20 N17          1.4640    -0.0020    -2.4450 ns         1 763      -0.210900
     21 O18          3.3520    -0.0020    -1.2740 o          1 763      -0.623100
     22 C19          2.1980    -0.0040    -3.7120 c3         1 763       0.058000
     23 O22          1.0460    -0.0060    -7.2880 os         1 763      -0.420600
     24 C23          1.6640    -0.0070    -8.5780 c3         1 763       0.203100
     25 N24          0.6280    -0.0080    -9.6140 na         1 763       0.387600
     26 C25         -0.7210     0.0030    -9.3780 cd         1 763      -0.235100
     27 C27         -0.3890    -0.0100   -11.6100 ca         1 763      -0.227100
     28 C29         -0.4350    -0.0190   -13.0020 ca         1 763       0.467200
     29 N30          0.6820    -0.0290   -13.7000 nb         1 763      -0.613000
     30 C31          1.8740    -0.0290   -13.1260 ca         1 763       0.415200
     31 C32          2.0120    -0.0190   -11.7560 ca         1 763      -0.231300
     32 H1          -0.5430     0.0000    -0.9380 ha         1 763       0.113000
     33 H2          -2.3310     0.0130     3.3520 ha         1 763       0.113000
     34 H3          -2.3380     0.0020    -0.9380 ha         1 763       0.113000
     35 H4          -4.8010     0.0140    -0.9260 ha         1 763       0.120500
     36 H5           0.5820    -0.8880    -4.8210 hc         1 763       0.026200
     37 H6           0.5840     0.8810    -4.8220 hc         1 763       0.026200
     38 H7           2.5960     0.8790    -6.2580 h1         1 763      -0.001800
     39 H8           2.5960    -0.8900    -6.2560 h1         1 763      -0.001800
     40 H10         -0.5350     0.0050     3.3510 ha         1 763       0.123000
     41 H11         -4.7950     0.0200     3.3490 ha         1 763       0.120500
     42 H12          2.0360    -0.8620     3.9770 ho         1 763       0.410000
     43 H13          3.7620     0.8340     1.5270 ho         1 763       0.413000
     44 H14          0.4630    -0.0010    -2.4470 hn         1 763       0.178500
     45 H15          2.8220     0.8790    -3.7700 h1         1 763       0.027200
     46 H16          2.8200    -0.8890    -3.7680 h1         1 763       0.027200
     47 H17          2.2800     0.8770    -8.6840 h2         1 763       0.004700
     48 H18          2.2800    -0.8920    -8.6830 h2         1 763       0.004700
     49 H19         -1.1810     0.0100    -8.3970 h4         1 763       0.151000
     50 H20         -1.3910    -0.0190   -13.5110 h4         1 763      -0.022900
     51 H21          2.7610    -0.0380   -13.7470 h4         1 763      -0.022900
     52 H22          2.9950    -0.0200   -11.3020 ha         1 763       0.107000
     53 F11         -6.2960     0.0250     1.2130 f          1 763      -0.126900
     54 H9          -2.4660     0.0100   -10.6680 ha         1 763       0.131000
@<TRIPOS>BOND
     1     1     2 ar  
     2     1    14 ar  
     3     1    32 1   
     4     2     3 ar  
     5     2    19 1   
     6     3    12 ar  
     7     3    18 1   
     8     4     5 ar  
     9     4     6 ar  
    10     4    14 1   
    11     5    15 ar  
    12     5    33 1   
    13     6     7 ar  
    14     6    34 1   
    15     7    16 ar  
    16     7    35 1   
    17     8     9 1   
    18     8    22 1   
    19     8    36 1   
    20     8    37 1   
    21     9    23 1   
    22     9    38 1   
    23     9    39 1   
    24    10    26 2   
    25    10    27 1   
    26    10    54 1   
    27    11    25 1   
    28    11    27 ar  
    29    11    31 ar  
    30    12    13 ar  
    31    12    17 1   
    32    13    14 ar  
    33    13    40 1   
    34    15    16 ar  
    35    15    41 1   
    36    16    53 1   
    37    17    42 1   
    38    18    43 1   
    39    19    20 1   
    40    19    21 2   
    41    20    22 1   
    42    20    44 1   
    43    22    45 1   
    44    22    46 1   
    45    23    24 1   
    46    24    25 1   
    47    24    47 1   
    48    24    48 1   
    49    25    26 1   
    50    26    49 1   
    51    27    28 ar  
    52    28    29 ar  
    53    28    50 1   
    54    29    30 ar  
    55    30    31 ar  
    56    30    51 1   
    57    31    52 1   
@<TRIPOS>SUBSTRUCTURE
     1 763         1 TEMP              0 ****  ****    0 ROOT
