@<TRIPOS>MOLECULE
molecule
   52    55     1     0     0
SMALL
bcc


@<TRIPOS>ATOM
      1 C1           0.0000     0.0000     0.0000 c3         1 765       0.112800
      2 C2           1.5300     0.0000     0.0000 c3         1 765      -0.112400
      3 C3           2.0410     0.0000     1.4420 c3         1 765      -0.012500
      4 N1           1.6520     1.2560     2.0990 nz         1 765      -0.796600
      5 C4           3.5430    -0.1240     1.4440 c          1 765       0.859600
      6 O1           4.1170    -1.3260     1.2760 o          1 765      -0.742800
      7 C5          -0.1580     0.9830    -2.2770 c3         1 765       0.138800
      8 C6          -1.2370     2.0620    -2.1710 c3         1 765       0.102100
      9 C7          -0.9180     3.2360    -3.1240 c3         1 765       0.097100
     10 O2          -1.6670     3.1160    -4.3340 oh         1 765      -0.564800
     11 C8          -1.3590     4.4900    -2.3360 c3         1 765       0.097100
     12 O3          -2.3950     5.1820    -3.0360 oh         1 765      -0.547800
     13 C9          -1.8930     3.9250    -1.0000 c3         1 765       0.268800
     14 O4          -1.2370     2.6450    -0.8500 os         1 765      -0.456600
     15 N2          -1.5370     4.8150     0.1080 na         1 765      -0.267000
     16 C10         -2.2370     5.9200     0.5180 ca         1 765       0.494800
     17 C11         -1.5220     6.4510     1.6050 ca         1 765      -0.222200
     18 N3          -0.4420     5.6560     1.7980 nc         1 765      -0.553100
     19 C12         -0.4520     4.6920     0.9240 cd         1 765       0.378700
     20 N4          -3.3520     6.5250     0.1220 nb         1 765      -0.800000
     21 C13         -3.7830     7.6070     0.7370 ca         1 765       0.769900
     22 N5          -3.1450     8.1420     1.7620 nb         1 765      -0.818000
     23 C14         -2.0220     7.6060     2.2290 ca         1 765       0.802200
     24 N6          -1.3600     8.1730     3.3040 nv         1 765      -0.968500
     25 N7          -0.4910    -0.1320    -1.3780 nk         1 765      -0.652800
     26 C15         -0.4990    -1.4810    -1.9590 cx         1 765       0.121800
     27 C16         -1.7980    -0.7750    -1.5650 cx         1 765       0.121800
     28 O5           4.2290     0.8580     1.5960 o          1 765      -0.742800
     29 H1          -0.3610    -0.8320     0.5930 hx         1 765       0.096200
     30 H2          -0.3610     0.9290     0.4240 hx         1 765       0.096200
     31 H3           1.8910    -0.8850    -0.5110 hc         1 765       0.099700
     32 H4           1.8910     0.8840    -0.5110 hc         1 765       0.099700
     33 H5           1.6090    -0.8370     1.9780 hx         1 765       0.112700
     34 H6           2.1480     1.3470     2.9640 hn         1 765       0.447467
     35 H7           1.8770     2.0280     1.5030 hn         1 765       0.447467
     36 H9          -0.1080     0.6210    -3.2970 hx         1 765       0.113200
     37 H10          0.8000     1.4010    -1.9940 hx         1 765       0.113200
     38 H11         -2.2130     1.6510    -2.3980 h1         1 765       0.093700
     39 H12          0.1450     3.2760    -3.3310 h1         1 765       0.056700
     40 H13         -1.0990     3.2620    -5.0720 ho         1 765       0.425000
     41 H14         -0.5120     5.1410    -2.1580 h1         1 765       0.074700
     42 H15         -2.0220     5.9030    -3.5150 ho         1 765       0.426000
     43 H16         -2.9660     3.7920    -1.0530 h2         1 765       0.124700
     44 H17          0.2920     3.9070     0.8550 h5         1 765       0.045800
     45 H18         -4.6950     8.0760     0.3890 h5         1 765       0.077100
     46 H19         -0.5980     7.6880     3.7350 hn         1 765       0.458800
     47 H20         -1.6410     9.0700     3.6480 hn         1 765       0.458800
     48 H21         -0.1800    -2.2780    -1.2980 hx         1 765       0.144200
     49 H22         -0.2980    -1.5350    -3.0220 hx         1 765       0.144200
     50 H23         -2.3930    -0.3970    -2.3880 hx         1 765       0.144200
     51 H24         -2.2750    -1.1400    -0.6640 hx         1 765       0.144200
     52 H131         0.6710     1.2390     2.2960 hn         1 765       0.447467
@<TRIPOS>BOND
     1    24    23 1
     2    23    17 ar
     3    23    22 ar
     4    18    17 1
     5    18    19 2
     6    17    16 ar
     7    22    21 ar
     8    19    15 1
     9    16    15 1
    10    16    20 ar
    11    21    20 ar
    12    15    13 1
    13    13    11 1
    14    13    14 1
    15    11    12 1
    16    11     9 1
    17    14     8 1
    18     7     8 1
    19     7    25 1
    20     9     8 1
    21     9    10 1
    22    26    25 1
    23    26    27 1
    24    25    27 1
    25    25     1 1
    26     1     2 1
    27     2     3 1
    28     4     3 1
    29     3     5 1
    30     6     5 1
    31     5    28 1
    32     1    29 1
    33     1    30 1
    34     2    31 1
    35     2    32 1
    36     3    33 1
    37     4    34 1
    38     4    35 1
    39     7    36 1
    40     7    37 1
    41     8    38 1
    42     9    39 1
    43    10    40 1
    44    11    41 1
    45    12    42 1
    46    13    43 1
    47    19    44 1
    48    21    45 1
    49    24    46 1
    50    24    47 1
    51    26    48 1
    52    26    49 1
    53    27    50 1
    54    27    51 1
    55    52     4 1
@<TRIPOS>SUBSTRUCTURE
     1 765         1 TEMP              0 ****  ****    0 ROOT
