@<TRIPOS>MOLECULE
766
   52    55     1     0     0
SMALL
bcc


@<TRIPOS>ATOM
      1 N1           0.0000     0.0000     0.0000 ns         1 766      -0.208900
      2 C4          -3.0010     0.0060     2.3160 c3         1 766      -0.025400
      3 C5          -4.5050     0.0130     2.0370 c3         1 766       0.063800
      4 C6          -5.2580     0.0120     3.3420 cc         1 766       0.002400
      5 C8          -5.6300     1.1020     3.9860 cd         1 766      -0.082200
      6 C10         -6.4980    -0.5040     5.4850 ca         1 766       0.047900
      7 C17          3.4840     0.0130    -3.6850 ca         1 766      -0.107000
      8 C20          2.0880     0.0190    -3.6890 cp         1 766      -0.039000
      9 C21          1.3500     0.0310    -4.9750 cp         1 766      -0.041000
     10 C22          1.3470     0.0000     0.0000 c          1 766       0.595700
     11 C24          4.1770     0.0010    -2.4900 ca         1 766       0.066100
     12 C26         -0.7260     0.0600    -6.1810 ca         1 766      -0.126500
     13 C28          1.3580     0.0490    -7.3760 ca         1 766      -0.126500
     14 C2          -0.7320     0.0000     1.2690 c3         1 766       0.053000
     15 C3          -2.2360     0.0060     0.9900 c3         1 766      -0.043400
     16 S7          -5.7580    -1.4370     4.1930 ss         1 766      -0.201500
     17 C9          -6.3460     0.8650     5.2260 ca         1 766      -0.201100
     18 C11         -7.1690    -0.8980     6.6490 ca         1 766      -0.175300
     19 C12         -7.6530     0.0570     7.4940 ca         1 766       0.407200
     20 N13         -7.5020     1.3450     7.2320 nb         1 766      -0.583000
     21 C14         -6.8830     1.7750     6.1570 ca         1 766       0.451200
     22 O15          5.5370    -0.0110    -2.4930 oh         1 766      -0.494100
     23 O16          4.1680    -0.0110    -0.1080 oh         1 766      -0.460100
     24 C18          2.0860     0.0010    -1.2780 ca         1 766      -0.169600
     25 C19          1.3890     0.0120    -2.4880 ca         1 766      -0.083000
     26 C23          3.4860     0.0010    -1.2810 ca         1 766       0.175100
     27 C25         -0.0440     0.0420    -4.9820 ca         1 766      -0.075500
     28 C27         -0.0280     0.0660    -7.3780 ca         1 766       0.105900
     29 C29          2.0480     0.0370    -6.1820 ca         1 766      -0.075500
     30 F30         -0.7000     0.0830    -8.5490 f          1 766      -0.126900
     31 O31          1.9560     0.0000     1.0530 o          1 766      -0.624100
     32 H1          -0.5000    -0.0240    -0.8660 hn         1 766       0.176500
     33 H2          -2.7350     0.8870     2.8860 hc         1 766       0.026200
     34 H3          -2.7430    -0.8820     2.8810 hc         1 766       0.026200
     35 H4          -4.7710    -0.8680     1.4660 hc         1 766       0.023700
     36 H5          -4.7630     0.9000     1.4720 hc         1 766       0.023700
     37 H6          -5.4170     2.0980     3.6170 ha         1 766       0.125000
     38 H7           4.0260     0.0180    -4.6230 ha         1 766       0.122000
     39 H8          -1.8090     0.0710    -6.1870 ha         1 766       0.119500
     40 H9           1.9000     0.0540    -8.3140 ha         1 766       0.119500
     41 H10         -0.4740    -0.8870     1.8350 h1         1 766       0.029200
     42 H11         -0.4670     0.8820     1.8390 h1         1 766       0.029200
     43 H12         -2.4950     0.8930     0.4250 hc         1 766       0.016200
     44 H13         -2.5020    -0.8760     0.4200 hc         1 766       0.016200
     45 H14         -7.3000    -1.9490     6.8760 ha         1 766       0.120000
     46 H15         -8.1720    -0.2440     8.3960 h4         1 766      -0.016900
     47 H16         -6.7840     2.8400     5.9850 h4         1 766      -0.018900
     48 H17          5.8440    -0.8750    -2.7120 ho         1 766       0.410000
     49 H18          4.5940     0.8210     0.0160 ho         1 766       0.413000
     50 H19          0.3060     0.0170    -2.4900 ha         1 766       0.113000
     51 H20         -0.5910     0.0370    -4.0470 ha         1 766       0.113000
     52 H21          3.1310     0.0240    -6.1820 ha         1 766       0.113000
@<TRIPOS>BOND
     1     1    10 1   
     2     1    14 1   
     3     1    32 1   
     4     2     3 1   
     5     2    15 1   
     6     2    33 1   
     7     2    34 1   
     8     3     4 1   
     9     3    35 1   
    10     3    36 1   
    11     4     5 2   
    12     4    16 1   
    13     5    17 1   
    14     5    37 1   
    15     6    16 1   
    16     6    17 ar  
    17     6    18 ar  
    18     7     8 ar  
    19     7    11 ar  
    20     7    38 1   
    21     8     9 1   
    22     8    25 ar  
    23     9    27 ar  
    24     9    29 ar  
    25    10    24 1   
    26    10    31 2   
    27    11    22 1   
    28    11    26 ar  
    29    12    27 ar  
    30    12    28 ar  
    31    12    39 1   
    32    13    28 ar  
    33    13    29 ar  
    34    13    40 1   
    35    14    15 1   
    36    14    41 1   
    37    14    42 1   
    38    15    43 1   
    39    15    44 1   
    40    17    21 ar  
    41    18    19 ar  
    42    18    45 1   
    43    19    20 ar  
    44    19    46 1   
    45    20    21 ar  
    46    21    47 1   
    47    22    48 1   
    48    23    26 1   
    49    23    49 1   
    50    24    25 ar  
    51    24    26 ar  
    52    25    50 1   
    53    27    51 1   
    54    28    30 1   
    55    29    52 1   
@<TRIPOS>SUBSTRUCTURE
     1 766         1 TEMP              0 ****  ****    0 ROOT
