@<TRIPOS>MOLECULE
molecule
   52    55     1     0     0
SMALL
bcc


@<TRIPOS>ATOM
      1 N1           0.0000     0.0000     0.0000 ns         1 766      -0.589900
      2 C4          -3.0010     0.0060     2.3160 c3         1 766      -0.076400
      3 C5          -4.5050     0.0130     2.0370 c3         1 766      -0.010200
      4 C6          -5.2580     0.0120     3.3420 cc         1 766      -0.034600
      5 C8          -5.6300     1.1020     3.9860 cd         1 766      -0.121200
      6 C10         -6.4980    -0.5040     5.4850 ca         1 766       0.010900
      7 C17          3.4840     0.0130    -3.6850 ca         1 766      -0.122000
      8 C20          2.0880     0.0190    -3.6890 cp         1 766      -0.040000
      9 C21          1.3500     0.0310    -4.9750 cp         1 766      -0.051000
     10 C22          1.3470     0.0000     0.0000 c          1 766       0.671700
     11 C24          4.1770     0.0010    -2.4900 ca         1 766       0.059100
     12 C26         -0.7260     0.0600    -6.1810 ca         1 766      -0.163000
     13 C28          1.3580     0.0490    -7.3760 ca         1 766      -0.163000
     14 C2          -0.7320     0.0000     1.2690 c3         1 766       0.115000
     15 C3          -2.2360     0.0060     0.9900 c3         1 766      -0.103400
     16 S7          -5.7580    -1.4370     4.1930 ss         1 766      -0.088500
     17 C9          -6.3460     0.8650     5.2260 ca         1 766      -0.207100
     18 C11         -7.1690    -0.8980     6.6490 ca         1 766      -0.219300
     19 C12         -7.6530     0.0570     7.4940 ca         1 766       0.422200
     20 N13         -7.5020     1.3450     7.2320 nb         1 766      -0.692000
     21 C14         -6.8830     1.7750     6.1570 ca         1 766       0.463200
     22 O15          5.5370    -0.0110    -2.4930 oh         1 766      -0.515100
     23 O16          4.1680    -0.0110    -0.1080 oh         1 766      -0.482100
     24 C18          2.0860     0.0010    -1.2780 ca         1 766      -0.154600
     25 C19          1.3890     0.0120    -2.4880 ca         1 766      -0.096000
     26 C23          3.4860     0.0010    -1.2810 ca         1 766       0.159100
     27 C25         -0.0440     0.0420    -4.9820 ca         1 766      -0.094500
     28 C27         -0.0280     0.0660    -7.3780 ca         1 766       0.137900
     29 C29          2.0480     0.0370    -6.1820 ca         1 766      -0.094500
     30 F30         -0.7000     0.0830    -8.5490 f          1 766      -0.137900
     31 O31          1.9560     0.0000     1.0530 o          1 766      -0.579100
     32 H1          -0.5000    -0.0240    -0.8660 hn         1 766       0.309500
     33 H2          -2.7350     0.8870     2.8860 hc         1 766       0.054200
     34 H3          -2.7430    -0.8820     2.8810 hc         1 766       0.054200
     35 H4          -4.7710    -0.8680     1.4660 hc         1 766       0.056200
     36 H5          -4.7630     0.9000     1.4720 hc         1 766       0.056200
     37 H6          -5.4170     2.0980     3.6170 ha         1 766       0.153000
     38 H7           4.0260     0.0180    -4.6230 ha         1 766       0.146000
     39 H8          -1.8090     0.0710    -6.1870 ha         1 766       0.148000
     40 H9           1.9000     0.0540    -8.3140 ha         1 766       0.148000
     41 H10         -0.4740    -0.8870     1.8350 h1         1 766       0.056700
     42 H11         -0.4670     0.8820     1.8390 h1         1 766       0.056700
     43 H12         -2.4950     0.8930     0.4250 hc         1 766       0.045200
     44 H13         -2.5020    -0.8760     0.4200 hc         1 766       0.045200
     45 H14         -7.3000    -1.9490     6.8760 ha         1 766       0.143000
     46 H15         -8.1720    -0.2440     8.3960 h4         1 766       0.026100
     47 H16         -6.7840     2.8400     5.9850 h4         1 766       0.027100
     48 H17          5.8440    -0.8750    -2.7120 ho         1 766       0.428000
     49 H18          4.5940     0.8210     0.0160 ho         1 766       0.435000
     50 H19          0.3060     0.0170    -2.4900 ha         1 766       0.133000
     51 H20         -0.5910     0.0370    -4.0470 ha         1 766       0.137500
     52 H21          3.1310     0.0240    -6.1820 ha         1 766       0.137500
@<TRIPOS>BOND
     1    30    28 1   
     2    12    28 ar  
     3    12    27 ar  
     4    28    13 ar  
     5    27     9 ar  
     6    13    29 ar  
     7     9    29 ar  
     8     9     8 1   
     9     8    25 ar  
    10     8     7 ar  
    11    25    24 ar  
    12     7    11 ar  
    13    15     2 1   
    14    15    14 1   
    15    31    10 2   
    16    24    10 1   
    17    24    26 ar  
    18     3     2 1   
    19     3     4 1   
    20    11    26 ar  
    21    11    22 1   
    22    10     1 1   
    23    26    23 1   
    24     1    14 1   
    25     4    16 1   
    26     4     5 2   
    27    16     6 1   
    28     5    17 1   
    29     6    17 ar  
    30     6    18 ar  
    31    17    21 ar  
    32    18    19 ar  
    33    21    20 ar  
    34    19    20 ar  
    35     1    32 1   
    36     2    33 1   
    37     2    34 1   
    38     3    35 1   
    39     3    36 1   
    40     5    37 1   
    41     7    38 1   
    42    12    39 1   
    43    13    40 1   
    44    14    41 1   
    45    14    42 1   
    46    15    43 1   
    47    15    44 1   
    48    18    45 1   
    49    19    46 1   
    50    21    47 1   
    51    22    48 1   
    52    23    49 1   
    53    25    50 1   
    54    27    51 1   
    55    29    52 1   
@<TRIPOS>SUBSTRUCTURE
     1 766         1 TEMP              0 ****  ****    0 ROOT
