@<TRIPOS>MOLECULE
767
   51    52     1     0     0
SMALL
bcc


@<TRIPOS>ATOM
      1 C2           0.0000     0.0000     0.0000 c3         1 767       0.183100
      2 N1           1.4680     0.0000     0.0000 n3         1 767      -0.548600
      3 C1           1.9960     0.0000     1.3710 c3         1 767       0.183100
      4 C3           1.9950    -1.1370    -0.7670 c3         1 767       0.158800
      5 C4           3.5050    -0.9700    -0.9560 c3         1 767      -0.050400
      6 C5           4.0520    -2.1550    -1.7540 c3         1 767       0.168800
      7 N2           5.4970    -1.9950    -1.9350 nu         1 767      -0.492900
      8 C6           6.2180    -2.9500    -2.6320 ca         1 767       0.730900
      9 N3           7.5280    -2.7800    -2.7740 nb         1 767      -0.717000
     10 C7           8.2730    -3.6620    -3.4260 ca         1 767       0.583200
     11 N4           9.6320    -3.4740    -3.5680 nh         1 767      -0.524300
     12 C8           9.9170    -2.2470    -4.3240 c3         1 767       0.184100
     13 N6           5.5750    -3.9940    -3.1200 nb         1 767      -0.715000
     14 C20          6.2390    -4.9410    -3.8010 ca         1 767       0.471600
     15 C21          7.6380    -4.8030    -3.9740 ca         1 767      -0.302600
     16 C27          5.5860    -6.0610    -4.3320 ca         1 767      -0.287300
     17 C25          6.3120    -7.0060    -5.0220 ca         1 767       0.178100
     18 O2           5.6830    -8.0930    -5.5390 os         1 767      -0.291900
     19 C26          4.2730    -8.1870    -5.3260 c3         1 767       0.239700
     20 C23          7.6950    -6.8580    -5.1980 ca         1 767       0.096100
     21 C22          8.3540    -5.7820    -4.6760 ca         1 767      -0.129000
     22 O1           8.3910    -7.8040    -5.8850 os         1 767      -0.295900
     23 C24          9.7970    -7.5960    -6.0310 c3         1 767       0.239700
     24 H1          -0.3610     0.9020     0.4790 h1         1 767       0.001367
     25 H2          -0.3610    -0.8660     0.5420 h1         1 767       0.001367
     26 H3          -0.3610    -0.0370    -1.0210 h1         1 767       0.001367
     27 H5           2.9730     0.4670     1.3820 h1         1 767       0.001367
     28 H6           2.0790    -1.0200     1.7260 h1         1 767       0.001367
     29 H7           1.3240     0.5530     2.0160 h1         1 767       0.001367
     30 H8           1.7970    -2.0570    -0.2300 h1         1 767       0.011200
     31 H9           1.5120    -1.1730    -1.7360 h1         1 767       0.011200
     32 H10          3.9880    -0.9330     0.0130 hc         1 767       0.025700
     33 H11          3.7020    -0.0500    -1.4930 hc         1 767       0.025700
     34 H12          3.8550    -3.0740    -1.2160 h1         1 767       0.024200
     35 H13          3.5690    -2.1920    -2.7220 h1         1 767       0.024200
     36 H14          5.9640    -1.1950    -1.5560 hn         1 767       0.299800
     37 H16         10.9520    -2.2540    -4.6450 h1         1 767       0.007367
     38 H17          9.7410    -1.3850    -3.6920 h1         1 767       0.007367
     39 H18          9.2700    -2.1990    -5.1910 h1         1 767       0.007367
     40 H19          4.5450    -6.2430    -4.0960 ha         1 767       0.140000
     41 H20          4.0710    -8.2460    -4.2630 h1         1 767       0.000033
     42 H21          3.7860    -7.3110    -5.7370 h1         1 767       0.000033
     43 H22          3.8920    -9.0750    -5.8160 h1         1 767       0.000033
     44 H23          9.4230    -5.6770    -4.8180 ha         1 767       0.142000
     45 H24          9.9720    -6.6600    -6.5480 h1         1 767      -0.001967
     46 H25         10.2610    -7.5600    -5.0530 h1         1 767      -0.001967
     47 H26         10.2250    -8.4100    -6.6030 h1         1 767      -0.001967
     48 C9          10.2990    -3.4520    -2.2590 c3         1 767       0.184100
     49 H4           9.9430    -4.2810    -1.6580 h1         1 767       0.007367
     50 H15         11.3700    -3.5410    -2.3980 h1         1 767       0.007367
     51 H27         10.0760    -2.5200    -1.7550 h1         1 767       0.007367
@<TRIPOS>BOND
     1     1     2 1   
     2     1    24 1   
     3     1    25 1   
     4     1    26 1   
     5     2     3 1   
     6     2     4 1   
     7     3    27 1   
     8     3    28 1   
     9     3    29 1   
    10     4     5 1   
    11     4    30 1   
    12     4    31 1   
    13     5     6 1   
    14     5    32 1   
    15     5    33 1   
    16     6     7 1   
    17     6    34 1   
    18     6    35 1   
    19     7     8 1   
    20     7    36 1   
    21     8     9 ar  
    22     8    13 ar  
    23     9    10 ar  
    24    10    11 1   
    25    10    15 ar  
    26    11    12 1   
    27    11    48 1   
    28    12    37 1   
    29    12    38 1   
    30    12    39 1   
    31    13    14 ar  
    32    14    15 ar  
    33    14    16 ar  
    34    15    21 ar  
    35    16    17 ar  
    36    16    40 1   
    37    17    18 1   
    38    17    20 ar  
    39    18    19 1   
    40    19    41 1   
    41    19    42 1   
    42    19    43 1   
    43    20    21 ar  
    44    20    22 1   
    45    21    44 1   
    46    22    23 1   
    47    23    45 1   
    48    23    46 1   
    49    23    47 1   
    50    48    49 1   
    51    48    50 1   
    52    48    51 1   
@<TRIPOS>SUBSTRUCTURE
     1 767         1 TEMP              0 ****  ****    0 ROOT
