@<TRIPOS>MOLECULE
molecule
   51    52     1     0     0
SMALL
bcc


@<TRIPOS>ATOM
      1 C2           0.0000     0.0000     0.0000 c3         1 767       0.151100
      2 N1           1.4680     0.0000     0.0000 n3         1 767      -0.733600
      3 C1           1.9960     0.0000     1.3710 c3         1 767       0.151100
      4 C3           1.9950    -1.1370    -0.7670 c3         1 767       0.166800
      5 C4           3.5050    -0.9700    -0.9560 c3         1 767      -0.103400
      6 C5           4.0520    -2.1550    -1.7540 c3         1 767       0.247800
      7 N2           5.4970    -1.9950    -1.9350 nu         1 767      -0.901900
      8 C6           6.2180    -2.9500    -2.6320 ca         1 767       0.952900
      9 N3           7.5280    -2.7800    -2.7740 nb         1 767      -0.838000
     10 C7           8.2730    -3.6620    -3.4260 ca         1 767       0.699200
     11 N4           9.6320    -3.4740    -3.5680 nh         1 767      -0.725300
     12 C8           9.9170    -2.2470    -4.3240 c3         1 767       0.158100
     13 N6           5.5750    -3.9940    -3.1200 nb         1 767      -0.809000
     14 C20          6.2390    -4.9410    -3.8010 ca         1 767       0.505600
     15 C21          7.6380    -4.8030    -3.9740 ca         1 767      -0.306600
     16 C27          5.5860    -6.0610    -4.3320 ca         1 767      -0.291300
     17 C25          6.3120    -7.0060    -5.0220 ca         1 767       0.174100
     18 O2           5.6830    -8.0930    -5.5390 os         1 767      -0.308900
     19 C26          4.2730    -8.1870    -5.3260 c3         1 767       0.123700
     20 C23          7.6950    -6.8580    -5.1980 ca         1 767       0.092100
     21 C22          8.3540    -5.7820    -4.6760 ca         1 767      -0.139000
     22 O1           8.3910    -7.8040    -5.8850 os         1 767      -0.316900
     23 C24          9.7970    -7.5960    -6.0310 c3         1 767       0.126700
     24 H1          -0.3610     0.9020     0.4790 h1         1 767       0.032367
     25 H2          -0.3610    -0.8660     0.5420 h1         1 767       0.032367
     26 H3          -0.3610    -0.0370    -1.0210 h1         1 767       0.032367
     27 H5           2.9730     0.4670     1.3820 h1         1 767       0.032367
     28 H6           2.0790    -1.0200     1.7260 h1         1 767       0.032367
     29 H7           1.3240     0.5530     2.0160 h1         1 767       0.032367
     30 H8           1.7970    -2.0570    -0.2300 h1         1 767       0.036700
     31 H9           1.5120    -1.1730    -1.7360 h1         1 767       0.036700
     32 H10          3.9880    -0.9330     0.0130 hc         1 767       0.054200
     33 H11          3.7020    -0.0500    -1.4930 hc         1 767       0.054200
     34 H12          3.8550    -3.0740    -1.2160 h1         1 767       0.050200
     35 H13          3.5690    -2.1920    -2.7220 h1         1 767       0.050200
     36 H14          5.9640    -1.1950    -1.5560 hn         1 767       0.453800
     37 H16         10.9520    -2.2540    -4.6450 h1         1 767       0.042867
     38 H17          9.7410    -1.3850    -3.6920 h1         1 767       0.042867
     39 H18          9.2700    -2.1990    -5.1910 h1         1 767       0.042867
     40 H19          4.5450    -6.2430    -4.0960 ha         1 767       0.159000
     41 H20          4.0710    -8.2460    -4.2630 h1         1 767       0.044367
     42 H21          3.7860    -7.3110    -5.7370 h1         1 767       0.044367
     43 H22          3.8920    -9.0750    -5.8160 h1         1 767       0.044367
     44 H23          9.4230    -5.6770    -4.8180 ha         1 767       0.162000
     45 H24          9.9720    -6.6600    -6.5480 h1         1 767       0.041367
     46 H25         10.2610    -7.5600    -5.0530 h1         1 767       0.041367
     47 H26         10.2250    -8.4100    -6.6030 h1         1 767       0.041367
     48 C9          10.2990    -3.4520    -2.2590 c3         1 767       0.158100
     49 H4           9.9430    -4.2810    -1.6580 h1         1 767       0.042867
     50 H15         11.3700    -3.5410    -2.3980 h1         1 767       0.042867
     51 H27         10.0760    -2.5200    -1.7550 h1         1 767       0.042867
@<TRIPOS>BOND
     1    12    11 1   
     2    23    22 1   
     3    11    10 1   
     4    22    20 1   
     5    21    20 ar  
     6    21    15 ar  
     7    10    15 ar  
     8    10     9 ar  
     9    20    17 ar  
    10    15    14 ar  
    11     9     8 ar  
    12    17    18 1   
    13    17    16 ar  
    14    14    16 ar  
    15    14    13 ar  
    16    18    19 1   
    17     8    13 ar  
    18     8     7 1   
    19     6     5 1   
    20     6     7 1   
    21     5     4 1   
    22     1     2 1   
    23     3     2 1   
    24     4     2 1   
    25     1    24 1   
    26     1    25 1   
    27     1    26 1   
    28     3    27 1   
    29     3    28 1   
    30     3    29 1   
    31     4    30 1   
    32     4    31 1   
    33     5    32 1   
    34     5    33 1   
    35     6    34 1   
    36     6    35 1   
    37     7    36 1   
    38    12    37 1   
    39    12    38 1   
    40    12    39 1   
    41    16    40 1   
    42    19    41 1   
    43    19    42 1   
    44    19    43 1   
    45    21    44 1   
    46    23    45 1   
    47    23    46 1   
    48    23    47 1   
    49    11    48 1   
    50    48    49 1   
    51    48    50 1   
    52    48    51 1   
@<TRIPOS>SUBSTRUCTURE
     1 767         1 TEMP              0 ****  ****    0 ROOT
