@<TRIPOS>MOLECULE
molecule
   59    62     1     0     0
SMALL
bcc


@<TRIPOS>ATOM
      1 O1           0.0000     0.0000     0.0000 oh         1 768      -0.600800
      2 C16          1.4290     0.0000     0.0000 c3         1 768       0.124100
      3 C17          1.9400     0.0000     1.4430 c3         1 768       0.109400
      4 O2           1.5610     1.2220     2.0810 os         1 768      -0.315900
      5 C18          1.9390     1.3830     3.3770 ca         1 768       0.154100
      6 C19          2.6600     0.3870     4.0190 ca         1 768      -0.206000
      7 C20          3.0430     0.5530     5.3360 ca         1 768      -0.081000
      8 C21          2.7100     1.7110     6.0140 ca         1 768      -0.003600
      9 Cl1          3.1930     1.9170     7.6690 cl         1 768      -0.100400
     10 C22          1.9920     2.7070     5.3760 ca         1 768      -0.081000
     11 C23          1.6110     2.5470     4.0570 ca         1 768       0.002400
     12 Cl2          0.7160     3.7990     3.2530 cl         1 768      -0.084400
     13 C15          1.9390    -1.2490    -0.7220 c3         1 768       0.090300
     14 N3           1.5520    -1.1910    -2.1330 na         1 768      -0.197300
     15 C14          2.2890    -0.6330    -3.1470 cc         1 768       0.618300
     16 N4           3.4560    -0.0640    -3.0140 n2         1 768      -0.957100
     17 C13          0.3730    -1.6970    -2.6790 ca         1 768      -0.022200
     18 C12         -0.7150    -2.3560    -2.1250 ca         1 768      -0.114000
     19 C11         -1.7650    -2.7500    -2.9310 ca         1 768      -0.130000
     20 C10         -1.7380    -2.4900    -4.2890 ca         1 768      -0.126000
     21 C9          -0.6600    -1.8330    -4.8500 ca         1 768      -0.133000
     22 C8           0.4000    -1.4330    -4.0500 ca         1 768      -0.035200
     23 N2           1.5960    -0.7720    -4.3240 na         1 768      -0.254300
     24 C7           2.0400    -0.3090    -5.6410 c3         1 768       0.063300
     25 C6           2.8390    -1.4180    -6.3290 c3         1 768       0.135800
     26 N1           3.2830    -0.9540    -7.6500 n3         1 768      -0.729600
     27 C5           4.2460    -1.8920    -8.2410 c3         1 768       0.159800
     28 C4           4.5750    -1.4540    -9.6700 c3         1 768      -0.077900
     29 C3           5.1620    -0.0400    -9.6440 c3         1 768      -0.082400
     30 C2           4.1600     0.9070    -8.9790 c3         1 768      -0.077900
     31 C1           3.8430     0.4020    -7.5700 c3         1 768       0.159800
     32 HO1         -0.3140     0.8890    -0.0170 ho         1 768       0.419000
     33 H16          1.7900     0.8850    -0.5110 h1         1 768       0.069700
     34 H17          1.5080    -0.8360     1.9790 h1         1 768       0.047200
     35 H17A         3.0190    -0.0890     1.4440 h1         1 768       0.047200
     36 H19          2.9210    -0.5200     3.4890 ha         1 768       0.147000
     37 H20          3.6060    -0.2250     5.8380 ha         1 768       0.149000
     38 H22          1.7340     3.6150     5.9080 ha         1 768       0.162000
     39 H15          1.5070    -2.1310    -0.2650 h1         1 768       0.074700
     40 H15A         3.0180    -1.2950    -0.6460 h1         1 768       0.074700
     41 HN4          3.9220     0.3160    -3.8140 hn         1 768       0.408400
     42 H12         -0.7390    -2.5620    -1.0610 ha         1 768       0.142000
     43 H11         -2.6130    -3.2660    -2.4970 ha         1 768       0.135000
     44 H10         -2.5660    -2.8010    -4.9150 ha         1 768       0.134000
     45 H9          -0.6420    -1.6300    -5.9140 ha         1 768       0.135000
     46 H7           2.6650     0.5680    -5.5250 h1         1 768       0.067200
     47 H7A          1.1760    -0.0590    -6.2460 h1         1 768       0.067200
     48 H6           3.7030    -1.6680    -5.7250 h1         1 768       0.047200
     49 H6A          2.2140    -2.2950    -6.4460 h1         1 768       0.047200
     50 H5           3.8140    -2.8860    -8.2590 h1         1 768       0.034950
     51 H5A          5.1530    -1.8980    -7.6480 h1         1 768       0.034950
     52 H4           5.2990    -2.1370   -10.0990 hc         1 768       0.049200
     53 H4A          3.6700    -1.4570   -10.2660 hc         1 768       0.049200
     54 H3           6.0860    -0.0440    -9.0770 hc         1 768       0.041700
     55 H3A          5.3540     0.2900   -10.6570 hc         1 768       0.041700
     56 H2           4.5890     1.9000    -8.9180 hc         1 768       0.049200
     57 H2A          3.2490     0.9370    -9.5650 hc         1 768       0.049200
     58 H1           4.7530     0.3800    -6.9820 h1         1 768       0.034950
     59 H1A          3.1220     1.0620    -7.1050 h1         1 768       0.034950
@<TRIPOS>BOND
     1     1     2 1   
     2     2     3 1   
     3     2    13 1   
     4     3     4 1   
     5     4     5 1   
     6     5     6 ar  
     7     5    11 ar  
     8     6     7 ar  
     9     7     8 ar  
    10     8     9 1   
    11     8    10 ar  
    12    10    11 ar  
    13    11    12 1   
    14    13    14 1   
    15    14    15 1   
    16    14    17 1   
    17    15    16 2   
    18    15    23 1   
    19    17    18 ar  
    20    17    22 ar  
    21    18    19 ar  
    22    19    20 ar  
    23    20    21 ar  
    24    21    22 ar  
    25    22    23 1   
    26    23    24 1   
    27    24    25 1   
    28    25    26 1   
    29    26    27 1   
    30    26    31 1   
    31    27    28 1   
    32    28    29 1   
    33    29    30 1   
    34    30    31 1   
    35     1    32 1   
    36     2    33 1   
    37     3    34 1   
    38     3    35 1   
    39     6    36 1   
    40     7    37 1   
    41    10    38 1   
    42    13    39 1   
    43    13    40 1   
    44    16    41 1   
    45    18    42 1   
    46    19    43 1   
    47    20    44 1   
    48    21    45 1   
    49    24    46 1   
    50    24    47 1   
    51    25    48 1   
    52    25    49 1   
    53    27    50 1   
    54    27    51 1   
    55    28    52 1   
    56    28    53 1   
    57    29    54 1   
    58    29    55 1   
    59    30    56 1   
    60    30    57 1   
    61    31    58 1   
    62    31    59 1   
@<TRIPOS>SUBSTRUCTURE
     1 768         1 TEMP              0 ****  ****    0 ROOT
