@<TRIPOS>MOLECULE
768
   59    62     1     0     0
SMALL
bcc


@<TRIPOS>ATOM
      1 O1           0.0000     0.0000     0.0000 oh         1 768      -0.579800
      2 C16          1.4290     0.0000     0.0000 c3         1 768       0.160100
      3 C17          1.9400     0.0000     1.4430 c3         1 768       0.172400
      4 O2           1.5610     1.2220     2.0810 os         1 768      -0.296900
      5 C18          1.9390     1.3830     3.3770 ca         1 768       0.158100
      6 C19          2.6600     0.3870     4.0190 ca         1 768      -0.192000
      7 C20          3.0430     0.5530     5.3360 ca         1 768      -0.052000
      8 C21          2.7100     1.7110     6.0140 ca         1 768      -0.067600
      9 Cl1          3.1930     1.9170     7.6690 cl         1 768      -0.018400
     10 C22          1.9920     2.7070     5.3760 ca         1 768      -0.058000
     11 C23          1.6110     2.5470     4.0570 ca         1 768      -0.070600
     12 Cl2          0.7160     3.7990     3.2530 cl         1 768       0.000600
     13 C15          1.9390    -1.2490    -0.7220 c3         1 768      -0.007700
     14 N3           1.5520    -1.1910    -2.1330 na         1 768       0.167700
     15 C14          2.2890    -0.6330    -3.1470 cc         1 768       0.300300
     16 N4           3.4560    -0.0640    -3.0140 n2         1 768      -0.859100
     17 C13          0.3730    -1.6970    -2.6790 ca         1 768      -0.174200
     18 C12         -0.7150    -2.3560    -2.1250 ca         1 768      -0.078000
     19 C11         -1.7650    -2.7500    -2.9310 ca         1 768      -0.105000
     20 C10         -1.7380    -2.4900    -4.2890 ca         1 768      -0.097000
     21 C9          -0.6600    -1.8330    -4.8500 ca         1 768      -0.094000
     22 C8           0.4000    -1.4330    -4.0500 ca         1 768      -0.181200
     23 N2           1.5960    -0.7720    -4.3240 na         1 768       0.233700
     24 C7           2.0400    -0.3090    -5.6410 c3         1 768      -0.025700
     25 C6           2.8390    -1.4180    -6.3290 c3         1 768       0.130800
     26 N1           3.2830    -0.9540    -7.6500 n3         1 768      -0.538600
     27 C5           4.2460    -1.8920    -8.2410 c3         1 768       0.146800
     28 C4           4.5750    -1.4540    -9.6700 c3         1 768      -0.023400
     29 C3           5.1620    -0.0400    -9.6440 c3         1 768      -0.027400
     30 C2           4.1600     0.9070    -8.9790 c3         1 768      -0.023400
     31 C1           3.8430     0.4020    -7.5700 c3         1 768       0.146800
     32 HO1         -0.3140     0.8890    -0.0000 ho         1 768       0.407000
     33 H16          1.7900     0.8850    -0.5110 h1         1 768       0.023700
     34 H17          3.0190    -0.0890     1.4440 h1         1 768       0.013700
     35 H17A         1.5080    -0.8360     1.9790 h1         1 768       0.013700
     36 H19          2.9210    -0.5200     3.4890 ha         1 768       0.125000
     37 H20          3.6060    -0.2250     5.8380 ha         1 768       0.115000
     38 H22          1.7340     3.6150     5.9080 ha         1 768       0.127000
     39 H15          3.0180    -1.2950    -0.6460 h1         1 768       0.039200
     40 H15A         1.5070    -2.1310    -0.2650 h1         1 768       0.039200
     41 HN4          3.8860    -0.0090    -2.1120 hn         1 768       0.329400
     42 H12         -0.7390    -2.5620    -1.0610 ha         1 768       0.112000
     43 H11         -2.6130    -3.2660    -2.4970 ha         1 768       0.105000
     44 H10         -2.5660    -2.8010    -4.9150 ha         1 768       0.105000
     45 H9          -0.6420    -1.6300    -5.9140 ha         1 768       0.110000
     46 H7           2.6650     0.5680    -5.5240 h1         1 768       0.047700
     47 H7A          1.1760    -0.0590    -6.2460 h1         1 768       0.047700
     48 H6           2.2140    -2.2950    -6.4460 h1         1 768       0.019700
     49 H6A          3.7030    -1.6680    -5.7250 h1         1 768       0.019700
     50 H5           5.1530    -1.8980    -7.6480 h1         1 768       0.013450
     51 H5A          3.8150    -2.8860    -8.2590 h1         1 768       0.013450
     52 H4           3.6700    -1.4570   -10.2660 hc         1 768       0.018200
     53 H4A          5.2990    -2.1370   -10.0990 hc         1 768       0.018200
     54 H3           5.3540     0.2900   -10.6570 hc         1 768       0.012700
     55 H3A          6.0860    -0.0440    -9.0770 hc         1 768       0.012700
     56 H2           3.2490     0.9370    -9.5650 hc         1 768       0.018200
     57 H2A          4.5890     1.9000    -8.9180 hc         1 768       0.018200
     58 H1           3.1220     1.0620    -7.1050 h1         1 768       0.013450
     59 H1A          4.7530     0.3800    -6.9820 h1         1 768       0.013450
@<TRIPOS>BOND
     1     1     2 1   
     2     1    32 1   
     3     2     3 1   
     4     2    13 1   
     5     2    33 1   
     6     3     4 1   
     7     3    34 1   
     8     3    35 1   
     9     4     5 1   
    10     5     6 ar  
    11     5    11 ar  
    12     6     7 ar  
    13     6    36 1   
    14     7     8 ar  
    15     7    37 1   
    16     8     9 1   
    17     8    10 ar  
    18    10    11 ar  
    19    10    38 1   
    20    11    12 1   
    21    13    14 1   
    22    13    39 1   
    23    13    40 1   
    24    14    15 1   
    25    14    17 1   
    26    15    16 2   
    27    15    23 1   
    28    16    41 1   
    29    17    18 ar  
    30    17    22 ar  
    31    18    19 ar  
    32    18    42 1   
    33    19    20 ar  
    34    19    43 1   
    35    20    21 ar  
    36    20    44 1   
    37    21    22 ar  
    38    21    45 1   
    39    22    23 1   
    40    23    24 1   
    41    24    25 1   
    42    24    46 1   
    43    24    47 1   
    44    25    26 1   
    45    25    48 1   
    46    25    49 1   
    47    26    27 1   
    48    26    31 1   
    49    27    28 1   
    50    27    50 1   
    51    27    51 1   
    52    28    29 1   
    53    28    52 1   
    54    28    53 1   
    55    29    30 1   
    56    29    54 1   
    57    29    55 1   
    58    30    31 1   
    59    30    56 1   
    60    30    57 1   
    61    31    58 1   
    62    31    59 1   
@<TRIPOS>SUBSTRUCTURE
     1 768         1 TEMP              0 ****  ****    0 ROOT
