@<TRIPOS>MOLECULE
molecule
   54    57     1     0     0
SMALL
bcc


@<TRIPOS>ATOM
      1 C4           0.0000     0.0000     0.0000 ca         1 769      -0.094500
      2 C5           1.3940     0.0000     0.0000 cp         1 769      -0.051000
      3 C6           2.0870     0.0000     1.2090 ca         1 769      -0.094500
      4 C7           2.1370    -0.0010    -1.2840 cp         1 769      -0.040000
      5 C8           1.4390     0.0050    -2.4940 ca         1 769      -0.121000
      6 C10          3.5260    -0.0010    -1.2820 ca         1 769      -0.096000
      7 C13          3.5180    -0.0030    -3.7020 ca         1 769       0.159100
      8 C20          8.3540     0.0000     0.1100 c3         1 769      -0.068200
      9 C21          9.8610     0.0000     0.1060 c2         1 769      -0.154200
     10 C22         10.5170     0.9300     0.7550 c2         1 769      -0.197200
     11 C26         13.2740     3.7860    -1.1100 cc         1 769      -0.184200
     12 C28         13.1640     4.3700     0.2280 ca         1 769      -0.233100
     13 C1           1.3920    -0.0010     2.4000 ca         1 769      -0.162500
     14 C2           0.0070     0.0000     2.3970 ca         1 769       0.137900
     15 C3          -0.6870     0.0050     1.1970 ca         1 769      -0.162500
     16 C9           4.2230    -0.0020    -2.4910 ca         1 769      -0.154600
     17 C11          5.6990    -0.0020    -2.4940 c          1 769       0.672700
     18 O12          6.3040    -0.0020    -3.5490 o          1 769      -0.579100
     19 C14          2.1260     0.0030    -3.6930 ca         1 769       0.059100
     20 O15          1.4400     0.0080    -4.8680 oh         1 769      -0.515100
     21 O16          4.1920    -0.0030    -4.8800 oh         1 769      -0.482100
     22 F17         -0.6700    -0.0000     3.5660 f          1 769      -0.137900
     23 N18          6.3750    -0.0010    -1.3290 ns         1 769      -0.590900
     24 C19          7.8400    -0.0010    -1.3320 c3         1 769       0.118000
     25 C23         12.0240     0.9300     0.7520 c3         1 769       0.085500
     26 N24         12.5110     2.2290     0.2780 na         1 769      -0.066400
     27 C25         12.8710     2.5090    -1.0140 cd         1 769      -0.097100
     28 C27         12.6820     3.3390     1.0620 ca         1 769      -0.012200
     29 C29         13.4190     5.6240     0.7780 ca         1 769       0.471200
     30 N30         13.2110     5.8380     2.0600 nb         1 769      -0.714000
     31 C31         12.7610     4.8930     2.8700 ca         1 769       0.428200
     32 C32         12.4840     3.6240     2.4110 ca         1 769      -0.271300
     33 H1          -0.5430     0.0020    -0.9380 ha         1 769       0.137500
     34 H2           3.1700    -0.0000     1.2130 ha         1 769       0.137500
     35 H3           0.3560     0.0090    -2.4920 ha         1 769       0.147000
     36 H4           4.0670    -0.0000    -0.3440 ha         1 769       0.133000
     37 H5           7.9940    -0.8840     0.6220 hc         1 769       0.053200
     38 H6           7.9940     0.8850     0.6210 hc         1 769       0.053200
     39 H7          10.4010    -0.7690    -0.4330 ha         1 769       0.129000
     40 H8           9.9770     1.6990     1.2940 ha         1 769       0.141000
     41 H10          1.9300    -0.0020     3.3400 ha         1 769       0.148000
     42 H11         -1.7700     0.0050     1.1980 ha         1 769       0.148000
     43 H12          1.1020     0.8730    -5.0310 ho         1 769       0.428000
     44 H13          4.0810    -0.8370    -5.3060 ho         1 769       0.435000
     45 H14          5.8770    -0.0280    -0.4610 hn         1 769       0.310500
     46 H15          8.2000    -0.8860    -1.8430 h1         1 769       0.058200
     47 H16          8.2000     0.8830    -1.8440 h1         1 769       0.058200
     48 H17         12.3850     0.1480     0.0950 h1         1 769       0.065200
     49 H18         12.3880     0.7540     1.7570 h1         1 769       0.065200
     50 H19         12.8360     1.8050    -1.8360 h4         1 769       0.169000
     51 H20         13.7890     6.4250     0.1490 h4         1 769       0.024100
     52 H21         12.6070     5.1230     3.9170 h4         1 769       0.021100
     53 H22         12.1160     2.8620     3.0870 ha         1 769       0.130000
     54 H9          13.6160     4.2880    -2.0060 ha         1 769       0.158000
@<TRIPOS>BOND
     1    22    14 1   
     2    13    14 ar  
     3    13     3 ar  
     4    14    15 ar  
     5     3     2 ar  
     6    15     1 ar  
     7     2     1 ar  
     8     2     4 1   
     9     4     6 ar  
    10     4     5 ar  
    11     6    16 ar  
    12     8     9 1   
    13     8    24 1   
    14     5    19 ar  
    15     9    10 2   
    16    18    17 2   
    17    16    17 1   
    18    16     7 ar  
    19    17    23 1   
    20    19     7 ar  
    21    19    20 1   
    22     7    21 1   
    23    23    24 1   
    24    10    25 1   
    25    25    26 1   
    26    27    26 1   
    27    27    11 2   
    28    26    28 1   
    29    11    12 1   
    30    28    12 ar  
    31    28    32 ar  
    32    12    29 ar  
    33    32    31 ar  
    34    29    30 ar  
    35    31    30 ar  
    36     1    33 1   
    37     3    34 1   
    38     5    35 1   
    39     6    36 1   
    40     8    37 1   
    41     8    38 1   
    42     9    39 1   
    43    10    40 1   
    44    11    54 1   
    45    13    41 1   
    46    15    42 1   
    47    20    43 1   
    48    21    44 1   
    49    23    45 1   
    50    24    46 1   
    51    24    47 1   
    52    25    48 1   
    53    25    49 1   
    54    27    50 1   
    55    29    51 1   
    56    31    52 1   
    57    32    53 1   
@<TRIPOS>SUBSTRUCTURE
     1 769         1 TEMP              0 ****  ****    0 ROOT
