@<TRIPOS>MOLECULE
769
   54    59     1     0     0
SMALL
bcc


@<TRIPOS>ATOM
      1 C4           0.0000     0.0000     0.0000 ca         1 769      -0.074500
      2 C5           1.3940     0.0000     0.0000 cp         1 769      -0.043000
      3 C6           2.0870     0.0000     1.2090 ca         1 769      -0.074500
      4 C7           2.1370    -0.0010    -1.2840 cq         1 769      -0.034000
      5 C8           1.4390     0.0050    -2.4940 ca         1 769      -0.112000
      6 C10          3.5260    -0.0010    -1.2820 ca         1 769      -0.084000
      7 C13          3.5180    -0.0030    -3.7020 ca         1 769       0.129000
      8 C20          8.3540     0.0000     0.1100 DU         1 769       0.003000
      9 C21          9.8610     0.0000     0.1060 c2         1 769      -0.154000
     10 C22         10.5170     0.9300     0.7550 c2         1 769      -0.112000
     11 C26         13.2740     3.7860    -1.1100 c2         1 769      -0.140000
     12 C28         13.1640     4.3700     0.2280 c2         1 769      -0.157000
     13 C1           1.3920    -0.0010     2.4000 ca         1 769      -0.125500
     14 C2           0.0070     0.0000     2.3970 ca         1 769       0.073000
     15 C3          -0.6870     0.0050     1.1970 ca         1 769      -0.125500
     16 C9           4.2230    -0.0020    -2.4910 ca         1 769      -0.148000
     17 C11          5.6990    -0.0020    -2.4940 c2         1 769       0.272000
     18 O12          6.3040    -0.0020    -3.5490 o          1 769      -0.383000
     19 C14          2.1260     0.0030    -3.6930 ca         1 769       0.024000
     20 O15          1.4400     0.0080    -4.8680 oh         1 769      -0.232000
     21 O16          4.1920    -0.0030    -4.8800 oh         1 769      -0.204000
     22 F17         -0.6700    -0.0000     3.5660 f          1 769      -0.092000
     23 N18          6.3750    -0.0010    -1.3290 ns         1 769      -0.019000
     24 C19          7.8400    -0.0010    -1.3320 c3         1 769      -0.096000
     25 C23         12.0240     0.9300     0.7520 DU         1 769      -0.002000
     26 N24         12.5110     2.2290     0.2780 na         1 769       0.267000
     27 C25         12.8710     2.5090    -1.0140 c2         1 769      -0.227000
     28 C27         12.6820     3.3390     1.0620 c2         1 769      -0.130000
     29 C29         13.4190     5.6240     0.7780 c2         1 769       0.002000
     30 N30         13.2110     5.8380     2.0600 n2         1 769      -0.084000
     31 C31         12.7610     4.8930     2.8700 c2         1 769      -0.050000
     32 C32         12.4840     3.6240     2.4110 c2         1 769      -0.158000
     33 H1          -0.5430     0.0020    -0.9380 ha         1 769       0.113000
     34 H2           3.1700    -0.0000     1.2130 ha         1 769       0.113000
     35 H3           0.3560     0.0090    -2.4920 ha         1 769       0.123000
     36 H4           4.0670    -0.0000    -0.3440 ha         1 769       0.113000
     37 H5           7.9940     0.8850     0.6210 ha         1 769       0.058500
     38 H6           7.9940    -0.8840     0.6220 ha         1 769       0.058500
     39 H7           9.2480     0.6530    -0.5040 DU         1 769       0.047000
     40 H8          11.1270     1.2800    -0.0690 DU         1 769       0.015000
     41 H10          1.9300    -0.0020     3.3400 ha         1 769       0.120500
     42 H11         -1.7700     0.0050     1.1980 ha         1 769       0.120500
     43 H12          1.0000    -0.8180    -4.9790 ho         1 769       0.197000
     44 H13          4.0980    -0.8440    -5.2950 ho         1 769       0.202000
     45 H14          5.8770    -0.0290    -0.4610 hn         1 769       0.092000
     46 H15          8.2000    -0.8860    -1.8430 h1         1 769       0.075500
     47 H16          8.2000     0.8830    -1.8440 h1         1 769       0.075500
     48 H17         12.3880     0.7540     1.7570 ha         1 769       0.076000
     49 H18         12.3850     0.1480     0.0950 ha         1 769       0.076000
     50 H19         12.8360     1.8050    -1.8360 h4         1 769       0.144000
     51 H20         13.7890     6.4250     0.1490 h4         1 769       0.115000
     52 H21         12.6070     5.1230     3.9170 h4         1 769       0.114000
     53 H22         12.1160     2.8620     3.0870 ha         1 769       0.114000
     54 H9          13.6160     4.2880    -2.0060 ha         1 769       0.132000
@<TRIPOS>BOND
     1     1     2 1   
     2     1    15 1   
     3     1    33 1   
     4     2     3 1   
     5     2     4 1   
     6     3    13 1   
     7     3    34 1   
     8     4     5 1   
     9     4     6 1   
    10     5    19 1   
    11     5    35 1   
    12     6    16 1   
    13     6    36 1   
    14     7    16 1   
    15     7    19 1   
    16     7    21 1   
    17     8     9 1   
    18     8    24 1   
    19     8    37 1   
    20     8    38 1   
    21     8    39 1   
    22     9    10 1   
    23     9    39 1   
    24    10    25 1   
    25    10    40 1   
    26    11    12 1   
    27    11    27 1   
    28    11    54 1   
    29    12    28 1   
    30    12    29 1   
    31    13    14 1   
    32    13    41 1   
    33    14    15 1   
    34    14    22 1   
    35    15    42 1   
    36    16    17 1   
    37    17    18 1   
    38    17    23 1   
    39    19    20 1   
    40    20    43 1   
    41    21    44 1   
    42    23    24 1   
    43    23    45 1   
    44    24    46 1   
    45    24    47 1   
    46    25    26 1   
    47    25    40 1   
    48    25    48 1   
    49    25    49 1   
    50    26    27 1   
    51    26    28 1   
    52    27    50 1   
    53    28    32 1   
    54    29    30 1   
    55    29    51 1   
    56    30    31 1   
    57    31    32 1   
    58    31    52 1   
    59    32    53 1   
@<TRIPOS>SUBSTRUCTURE
     1 769         1 TEMP              0 ****  ****    0 ROOT
