@<TRIPOS>MOLECULE
molecule
   62    67     1     0     0
SMALL
bcc


@<TRIPOS>ATOM
      1 O1           0.0000     0.0000     0.0000 oh         1 76A      -0.523100
      2 C2           4.1510     0.0000     0.0000 cp         1 76A      -0.054000
      3 C3           3.4540     0.0000     1.2080 ca         1 76A      -0.104500
      4 C4           2.0580     0.0000     1.2070 ca         1 76A      -0.154000
      5 C5           1.3610     0.0000    -0.0010 ca         1 76A       0.105100
      6 C6           2.0590    -0.0000    -1.2080 ca         1 76A      -0.154000
      7 C7           3.4540    -0.0000    -1.2080 ca         1 76A      -0.104500
      8 C8           8.2580    -1.0810    -0.9750 ca         1 76A      -0.127500
      9 C9           7.6170    -1.5980     0.1500 ca         1 76A      -0.101500
     10 C10          6.2810    -1.2810     0.3970 ca         1 76A      -0.130000
     11 C11          5.5880    -0.4480    -0.4820 cp         1 76A      -0.019000
     12 C12          6.2310     0.0680    -1.6070 ca         1 76A      -0.130000
     13 C13          7.5680    -0.2480    -1.8540 ca         1 76A      -0.101500
     14 C14          9.6350    -1.4090    -1.2300 cc         1 76A       0.392800
     15 N15         10.4820    -1.6640    -0.2140 nd         1 76A      -0.492800
     16 N16         11.6630    -1.9290    -0.8290 na         1 76A       0.014400
     17 C17         11.5560    -1.8410    -2.1670 cd         1 76A      -0.065300
     18 C18         10.2660    -1.5080    -2.4700 cc         1 76A      -0.266600
     19 C19         12.3390    -1.9810    -3.3430 ca         1 76A      -0.006000
     20 C20         11.4350    -1.7100    -4.4090 ca         1 76A      -0.088300
     21 C21         10.0090    -1.3780    -3.9310 c3         1 76A       0.054200
     22 C22         13.6620    -2.3010    -3.5490 ca         1 76A      -0.113000
     23 C23         14.1020    -2.3500    -4.8740 ca         1 76A      -0.069000
     24 C24         13.2130    -2.0830    -5.9150 ca         1 76A      -0.145600
     25 C25         11.8810    -1.7620    -5.7190 ca         1 76A      -0.100000
     26 C26         13.7240    -2.1470    -7.3090 c          1 76A       0.675700
     27 N27         12.7870    -2.4560    -8.2810 ns         1 76A      -0.586900
     28 O28         14.9180    -1.9510    -7.5200 o          1 76A      -0.590100
     29 C29         13.1340    -2.5790    -9.6780 c3         1 76A       0.111700
     30 C30         11.9640    -2.1380   -10.5610 c3         1 76A      -0.089900
     31 C31         12.2850    -2.3080   -12.0430 c3         1 76A      -0.087400
     32 C32         12.7210    -3.7370   -12.3650 c3         1 76A       0.149100
     33 C33         13.8900    -4.1740   -11.4850 c3         1 76A      -0.087400
     34 C34         13.5720    -4.0090   -10.0020 c3         1 76A      -0.089900
     35 O35         13.1220    -3.8190   -13.7280 oh         1 76A      -0.603800
     36 H35         12.5550    -4.4160   -14.1870 ho         1 76A       0.401000
     37 H32         11.8860    -4.4050   -12.1960 h1         1 76A       0.024700
     38 H331        14.1100    -5.2160   -11.6840 hc         1 76A       0.054950
     39 H332        14.7580    -3.5730   -11.7280 hc         1 76A       0.054950
     40 H341        12.7750    -4.6920    -9.7350 hc         1 76A       0.046950
     41 H342        14.4570    -4.2470    -9.4240 hc         1 76A       0.046950
     42 H29         13.9700    -1.9200    -9.8790 h1         1 76A       0.076700
     43 H301        11.0940    -2.7360   -10.3180 hc         1 76A       0.046950
     44 H302        11.7480    -1.0950   -10.3660 hc         1 76A       0.046950
     45 H311        11.4020    -2.0710   -12.6240 hc         1 76A       0.054950
     46 H312        13.0840    -1.6280   -12.3100 hc         1 76A       0.054950
     47 H27         11.8360    -2.5990    -8.0060 hn         1 76A       0.315500
     48 H23         15.1340    -2.5960    -5.0930 ha         1 76A       0.160000
     49 H22         14.3310    -2.5030    -2.7210 ha         1 76A       0.142000
     50 H25         11.2180    -1.5600    -6.5510 ha         1 76A       0.139000
     51 H211         9.2920    -2.1130    -4.2760 hc         1 76A       0.077200
     52 H212         9.7240    -0.3670    -4.1980 hc         1 76A       0.077200
     53 H16         12.5090    -2.1600    -0.3470 hn         1 76A       0.323700
     54 H13          8.0670     0.1520    -2.7280 ha         1 76A       0.141000
     55 H12          5.6930     0.7160    -2.2890 ha         1 76A       0.136500
     56 H9           8.1560    -2.2450     0.8320 ha         1 76A       0.141000
     57 H7           3.9950    -0.0010    -2.1470 ha         1 76A       0.139500
     58 H6           1.5180    -0.0000    -2.1460 ha         1 76A       0.141500
     59 HO1         -0.3150     0.8890    -0.0020 ho         1 76A       0.420000
     60 H4           1.5160     0.0000     2.1450 ha         1 76A       0.141500
     61 H3           3.9950     0.0000     2.1470 ha         1 76A       0.139500
     62 H10          5.7820    -1.6820     1.2710 ha         1 76A       0.136500
@<TRIPOS>BOND
     1     1     5 1
     2     1    59 1
     3     2    11 1
     4     2     7 ar
     5     2     3 ar
     6     3     4 ar
     7     3    61 1
     8     4     5 ar
     9     4    60 1
    10     5     6 ar
    11     6     7 ar
    12     6    58 1
    13     7    57 1
    14     8    14 1
    15     8    13 ar
    16     8     9 ar
    17     9    10 ar
    18     9    56 1
    19    10    11 ar
    20    10    62 1
    21    11    12 ar
    22    12    13 ar
    23    12    55 1
    24    13    54 1
    25    14    18 1
    26    14    15 2
    27    15    16 1
    28    16    17 1
    29    16    53 1
    30    17    19 1
    31    17    18 2
    32    18    21 1
    33    19    22 ar
    34    19    20 ar
    35    20    25 ar
    36    20    21 1
    37    21    51 1
    38    21    52 1
    39    22    23 ar
    40    22    49 1
    41    23    24 ar
    42    23    48 1
    43    24    26 1
    44    24    25 ar
    45    25    50 1
    46    26    27 1
    47    26    28 2
    48    27    29 1
    49    27    47 1
    50    29    34 1
    51    29    30 1
    52    29    42 1
    53    30    31 1
    54    30    43 1
    55    30    44 1
    56    31    32 1
    57    31    45 1
    58    31    46 1
    59    32    35 1
    60    32    33 1
    61    32    37 1
    62    33    34 1
    63    33    38 1
    64    33    39 1
    65    34    40 1
    66    34    41 1
    67    35    36 1
@<TRIPOS>SUBSTRUCTURE
     1 76A         1 TEMP              0 ****  ****    0 ROOT
