@<TRIPOS>MOLECULE
76B
   52    55     1     0     0
SMALL
bcc


@<TRIPOS>ATOM
      1 N3           0.0000     0.0000     0.0000 nc         1 76B      -0.683800
      2 C6           3.2040    -3.1290     8.3080 ca         1 76B       0.177100
      3 C7           1.8170    -1.1490     8.3700 ca         1 76B      -0.083000
      4 C8           0.7220     0.0000     2.0820 cc         1 76B       0.255800
      5 C10          1.8840    -1.1530     9.7580 cp         1 76B      -0.038000
      6 C13          2.1800     0.0010    -1.2060 ca         1 76B      -0.091500
      7 C15          0.7910     0.0010     3.5870 c3         1 76B      -0.041700
      8 C17          1.6240    -0.0060    -2.4880 ca         1 76B      -0.190300
      9 C20          0.4570     0.8880     9.8790 ca         1 76B      -0.075500
     10 C21          1.2490    -0.1040    11.9280 ca         1 76B      -0.075500
     11 C22          2.4660    -0.0100    -3.5820 ca         1 76B       0.366600
     12 C26         -0.1210     1.8610    11.9900 ca         1 76B       0.106900
     13 C28          0.5950     0.8740    12.6490 ca         1 76B      -0.126000
     14 C1           2.4770    -2.1380     7.6390 ca         1 76B      -0.170600
     15 C2           1.3150     0.0000     0.0000 cd         1 76B       0.639500
     16 N4           1.7450     0.0000     1.2690 nd         1 76B      -0.672000
     17 N5          -0.4030    -0.0000     1.3440 na         1 76B       0.314600
     18 C9           2.4090    -2.1380     6.1640 c          1 76B       0.598700
     19 C11          3.2610    -3.1280     9.6990 ca         1 76B       0.066100
     20 C12          2.6060    -2.1480    10.4200 ca         1 76B      -0.106000
     21 C14          1.1830    -0.1030    10.5360 cp         1 76B      -0.041000
     22 N16          3.7750    -0.0100    -3.4290 nb         1 76B      -0.571000
     23 O18          2.9860    -2.9990     5.5290 o          1 76B      -0.616100
     24 N19          1.7090    -1.1810     5.5220 ns         1 76B      -0.215900
     25 O24          3.9630    -4.0950    10.3510 oh         1 76B      -0.493100
     26 C25          1.6420    -1.1810     4.0590 c3         1 76B       0.054000
     27 C27          4.3410    -0.0040    -2.2370 ca         1 76B       0.396200
     28 C29         -0.1890     1.8660    10.6060 ca         1 76B      -0.126000
     29 F30         -0.7550     2.8200    12.6990 f          1 76B      -0.126900
     30 C31          3.5740     0.0020    -1.0900 ca         1 76B      -0.195300
     31 C32          1.8780    -0.0180    -4.9700 c3         1 76B      -0.039400
     32 H2           1.2550    -0.3780     7.8560 ha         1 76B       0.112000
     33 H3           1.2390     0.9260     3.9280 hc         1 76B       0.022700
     34 H4          -0.2080    -0.0880     3.9950 hc         1 76B       0.022700
     35 H5           0.5490    -0.0060    -2.6220 ha         1 76B       0.131000
     36 H6           0.4030     0.8920     8.7970 ha         1 76B       0.112500
     37 H7           1.8080    -0.8760    12.4440 ha         1 76B       0.112500
     38 H8           0.6460     0.8740    13.7310 ha         1 76B       0.120000
     39 H9           2.6540    -2.1500    11.5020 ha         1 76B       0.123000
     40 H10          1.2080    -0.4900     6.0450 hn         1 76B       0.174500
     41 H11          4.7800    -3.9610     7.6690 ho         1 76B       0.414000
     42 H12          3.3640    -4.7250    10.7170 ho         1 76B       0.410000
     43 H13          2.6420    -1.0930     3.6510 h1         1 76B       0.040200
     44 H14          1.1940    -2.1070     3.7180 h1         1 76B       0.040200
     45 H15          5.4210    -0.0040    -2.1580 h4         1 76B      -0.018900
     46 H16         -0.7510     2.6380    10.0950 ha         1 76B       0.120000
     47 H17          4.0440     0.0070    -0.1150 ha         1 76B       0.131000
     48 H18          1.2690    -0.9040    -5.1000 hc         1 76B       0.013700
     49 H19          2.6780    -0.0190    -5.7010 hc         1 76B       0.013700
     50 H20          1.2650     0.8650    -5.1080 hc         1 76B       0.013700
     51 H1          -1.3430    -0.0000     1.6870 hn         1 76B       0.158700
     52 O23          3.8480    -4.0930     7.6030 oh         1 76B      -0.461100
@<TRIPOS>BOND
     1     1    15 2   
     2     1    17 1   
     3     2    14 ar  
     4     2    19 ar  
     5     2    52 1   
     6     3     5 ar  
     7     3    14 ar  
     8     3    32 1   
     9     4     7 1   
    10     4    16 2   
    11     4    17 1   
    12     5    20 ar  
    13     5    21 1   
    14     6     8 ar  
    15     6    15 1   
    16     6    30 ar  
    17     7    26 1   
    18     7    33 1   
    19     7    34 1   
    20     8    11 ar  
    21     8    35 1   
    22     9    21 ar  
    23     9    28 ar  
    24     9    36 1   
    25    10    13 ar  
    26    10    21 ar  
    27    10    37 1   
    28    11    22 ar  
    29    11    31 1   
    30    12    13 ar  
    31    12    28 ar  
    32    12    29 1   
    33    13    38 1   
    34    14    18 1   
    35    15    16 1   
    36    17    51 1   
    37    18    23 2   
    38    18    24 1   
    39    19    20 ar  
    40    19    25 1   
    41    20    39 1   
    42    22    27 ar  
    43    24    26 1   
    44    24    40 1   
    45    25    42 1   
    46    26    43 1   
    47    26    44 1   
    48    27    30 ar  
    49    27    45 1   
    50    28    46 1   
    51    30    47 1   
    52    31    48 1   
    53    31    49 1   
    54    31    50 1   
    55    41    52 1   
@<TRIPOS>SUBSTRUCTURE
     1 76B         1 TEMP              0 ****  ****    0 ROOT
