@<TRIPOS>MOLECULE
molecule
   52    55     1     0     0
SMALL
bcc


@<TRIPOS>ATOM
      1 N3           0.0000     0.0000     0.0000 nc         1 76B      -0.528800
      2 C6           3.2040    -3.1290     8.3080 ca         1 76B       0.160100
      3 C7           1.8170    -1.1490     8.3700 ca         1 76B      -0.096000
      4 C8           0.7220     0.0000     2.0820 cc         1 76B       0.454800
      5 C10          1.8840    -1.1530     9.7580 cp         1 76B      -0.040000
      6 C13          2.1800     0.0010    -1.2060 ca         1 76B      -0.074500
      7 C15          0.7910     0.0010     3.5870 c3         1 76B      -0.119700
      8 C17          1.6240    -0.0060    -2.4880 ca         1 76B      -0.224300
      9 C20          0.4570     0.8880     9.8790 ca         1 76B      -0.095000
     10 C21          1.2490    -0.1040    11.9280 ca         1 76B      -0.095000
     11 C22          2.4660    -0.0100    -3.5820 ca         1 76B       0.422600
     12 C26         -0.1210     1.8610    11.9900 ca         1 76B       0.137900
     13 C28          0.5950     0.8740    12.6490 ca         1 76B      -0.163000
     14 C1           2.4770    -2.1380     7.6390 ca         1 76B      -0.154600
     15 C2           1.3150     0.0000     0.0000 cd         1 76B       0.632500
     16 N4           1.7450     0.0000     1.2690 nd         1 76B      -0.748000
     17 N5          -0.4030    -0.0000     1.3440 na         1 76B      -0.170400
     18 C9           2.4090    -2.1380     6.1640 c          1 76B       0.674700
     19 C11          3.2610    -3.1280     9.6990 ca         1 76B       0.059100
     20 C12          2.6060    -2.1480    10.4200 ca         1 76B      -0.121000
     21 C14          1.1830    -0.1030    10.5360 cp         1 76B      -0.051000
     22 N16          3.7750    -0.0100    -3.4290 nb         1 76B      -0.688000
     23 O18          2.9860    -2.9990     5.5290 o          1 76B      -0.571100
     24 N19          1.7090    -1.1810     5.5220 ns         1 76B      -0.595900
     25 O24          3.9630    -4.0950    10.3510 oh         1 76B      -0.514100
     26 C25          1.6420    -1.1810     4.0590 c3         1 76B       0.120000
     27 C27          4.3410    -0.0040    -2.2370 ca         1 76B       0.417200
     28 C29         -0.1890     1.8660    10.6060 ca         1 76B      -0.163000
     29 F30         -0.7550     2.8200    12.6990 f          1 76B      -0.136900
     30 C31          3.5740     0.0020    -1.0900 ca         1 76B      -0.223300
     31 C32          1.8780    -0.0180    -4.9700 c3         1 76B      -0.140400
     32 H2           1.2550    -0.3780     7.8560 ha         1 76B       0.132000
     33 H3           1.2390     0.9260     3.9280 hc         1 76B       0.063200
     34 H4          -0.2080    -0.0880     3.9950 hc         1 76B       0.063200
     35 H5           0.5490    -0.0060    -2.6220 ha         1 76B       0.154000
     36 H6           0.4030     0.8920     8.7970 ha         1 76B       0.137000
     37 H7           1.8080    -0.8760    12.4440 ha         1 76B       0.137000
     38 H8           0.6460     0.8740    13.7310 ha         1 76B       0.148000
     39 H9           2.6540    -2.1500    11.5020 ha         1 76B       0.147000
     40 H10          1.2080    -0.4900     6.0450 hn         1 76B       0.308500
     41 H11          4.7800    -3.9610     7.6690 ho         1 76B       0.436000
     42 H12          3.3640    -4.7250    10.7170 ho         1 76B       0.428000
     43 H13          2.6420    -1.0930     3.6510 h1         1 76B       0.071700
     44 H14          1.1940    -2.1070     3.7180 h1         1 76B       0.071700
     45 H15          5.4210    -0.0040    -2.1580 h4         1 76B       0.026100
     46 H16         -0.7510     2.6380    10.0950 ha         1 76B       0.148000
     47 H17          4.0440     0.0070    -0.1150 ha         1 76B       0.159000
     48 H18          1.2690    -0.9040    -5.1000 hc         1 76B       0.052700
     49 H19          2.6780    -0.0190    -5.7010 hc         1 76B       0.052700
     50 H20          1.2650     0.8650    -5.1080 hc         1 76B       0.052700
     51 H1          -1.3430    -0.0000     1.6870 hn         1 76B       0.331700
     52 O23          3.8480    -4.0930     7.6030 oh         1 76B      -0.483100
@<TRIPOS>BOND
     1    29    12 1   
     2    13    12 ar  
     3    13    10 ar  
     4    12    28 ar  
     5    10    21 ar  
     6    28     9 ar  
     7    21     9 ar  
     8    21     5 1   
     9     5     3 ar  
    10     5    20 ar  
    11     3    14 ar  
    12    20    19 ar  
    13    23    18 2   
    14    14    18 1   
    15    14     2 ar  
    16     7     4 1   
    17     7    26 1   
    18    17     4 1   
    19    17     1 1   
    20    18    24 1   
    21    19     2 ar  
    22    19    25 1   
    23     2    52 1   
    24     4    16 2   
    25    24    26 1   
    26     1    15 2   
    27    16    15 1   
    28    15     6 1   
    29     6    30 ar  
    30     6     8 ar  
    31    30    27 ar  
    32     8    11 ar  
    33    27    22 ar  
    34    11    22 ar  
    35    11    31 1   
    36     3    32 1   
    37     7    33 1   
    38     7    34 1   
    39     8    35 1   
    40     9    36 1   
    41    10    37 1   
    42    13    38 1   
    43    20    39 1   
    44    24    40 1   
    45    52    41 1   
    46    25    42 1   
    47    26    43 1   
    48    26    44 1   
    49    27    45 1   
    50    28    46 1   
    51    30    47 1   
    52    31    48 1   
    53    31    49 1   
    54    31    50 1   
    55    17    51 1   
@<TRIPOS>SUBSTRUCTURE
     1 76B         1 TEMP              0 ****  ****    0 ROOT
