@<TRIPOS>MOLECULE
molecule
   50    53     1     0     0
SMALL
bcc


@<TRIPOS>ATOM
      1 C10          2.9710     0.0110     4.0650 cg         1 76C       0.267800
      2 C13          0.0000     0.0000     0.0000 c3         1 76C      -0.104100
      3 C17          2.9390     3.4690    -1.9750 ca         1 76C      -0.203600
      4 C20          3.3990     4.6360    -2.5850 ca         1 76C       0.095400
      5 C21          3.4900     5.7970    -1.8470 ca         1 76C      -0.146000
      6 C22          3.1270     5.8130    -0.5070 ca         1 76C      -0.082000
      7 C26          2.2340    -0.1060    -2.6790 ca         1 76C      -0.088700
      8 C01          2.1510    -1.1910     2.0660 ca         1 76C       0.798200
      9 C02          2.6190    -1.2040     3.3960 ca         1 76C      -0.409600
     10 C03          2.7330    -2.4500     4.0460 ca         1 76C       0.827200
     11 N04          2.3960    -3.5520     3.3850 nb         1 76C      -0.858000
     12 C05          1.9600    -3.4910     2.1340 ca         1 76C       1.006900
     13 N06          1.8320    -2.3430     1.4860 nb         1 76C      -0.888000
     14 N07          3.1860    -2.5240     5.3470 nv         1 76C      -1.080500
     15 N08          1.6210    -4.6640     1.4890 nv         1 76C      -0.980500
     16 N09          2.0190     0.0000     1.3800 nu         1 76C      -0.887900
     17 N11          3.2350     0.9740     4.6090 n1         1 76C      -0.391800
     18 C12          1.5310     0.0000     0.0000 c3         1 76C       0.211200
     19 C14          2.0340     1.2300    -0.7110 cc         1 76C       0.496900
     20 N15          2.3650     1.1260    -2.0270 n          1 76C      -0.287500
     21 C16          2.8210     2.2020    -2.7090 c          1 76C       0.706100
     22 C18          2.5750     3.4810    -0.6090 ca         1 76C       0.203400
     23 N19          2.1310     2.3340    -0.0360 nd         1 76C      -0.647100
     24 C23          2.6710     4.6720     0.1140 ca         1 76C      -0.119000
     25 O25          3.1220     2.1240    -3.8860 o          1 76C      -0.579500
     26 C27          1.0520    -0.4360    -3.3290 ca         1 76C       0.431200
     27 N28          0.9250    -1.5930    -3.9500 nb         1 76C      -0.661000
     28 C29          1.9040    -2.4760    -3.9810 ca         1 76C       0.403200
     29 C30          3.1130    -2.2190    -3.3570 ca         1 76C       0.011600
     30 C31          3.2890    -1.0150    -2.6920 ca         1 76C      -0.064300
     31 C32          4.5910    -0.6950    -2.0040 c3         1 76C      -0.053800
     32 F33          4.1080    -3.1310    -3.3950 f          1 76C      -0.126900
     33 H1          -0.3610    -0.0960     1.0170 hc         1 76C       0.053700
     34 H2          -0.3610     0.9290    -0.4250 hc         1 76C       0.053700
     35 H3          -0.3610    -0.8330    -0.5920 hc         1 76C       0.053700
     36 H4           3.8460     6.7080    -2.3130 ha         1 76C       0.151000
     37 H5           3.2030     6.7310     0.0630 ha         1 76C       0.144000
     38 H6           2.5330    -2.5350     6.1050 hn         1 76C       0.448800
     39 H7           4.1680    -2.5910     5.5320 hn         1 76C       0.448800
     40 H8           1.6580    -5.5350     1.9810 hn         1 76C       0.453300
     41 H9           1.3440    -4.6440     0.5270 hn         1 76C       0.453300
     42 H10          2.2070     0.8670     1.8430 hn         1 76C       0.481800
     43 H11          1.8920    -0.8850    -0.5110 h1         1 76C       0.097700
     44 H12          2.3920     4.7000     1.1600 ha         1 76C       0.157000
     45 H13          0.2010     0.2330    -3.2790 h4         1 76C       0.039100
     46 H14          1.7670    -3.4170    -4.5010 h4         1 76C       0.042100
     47 H15          5.3520    -0.4910    -2.7480 hc         1 76C       0.061367
     48 H16          4.8970    -1.5400    -1.3980 hc         1 76C       0.061367
     49 H17          4.4620     0.1750    -1.3720 hc         1 76C       0.061367
     50 Cl2          3.8540     4.6250    -4.2610 cl         1 76C      -0.060400
@<TRIPOS>BOND
     1    14    10 1   
     2    11    10 ar  
     3    11    12 ar  
     4    15    12 1   
     5    10     9 ar  
     6    12    13 ar  
     7     9     1 1   
     8     9     8 ar  
     9    13     8 ar  
    10     1    17 3   
    11     8    16 1   
    12    27    28 ar  
    13    27    26 ar  
    14    28    29 ar  
    15    16    18 1   
    16    32    29 1   
    17    26     7 ar  
    18    29    30 ar  
    19     2    18 1   
    20    18    19 1   
    21     7    30 ar  
    22     7    20 1   
    23    30    31 1   
    24    19    20 1   
    25    19    23 2   
    26    20    21 1   
    27    23    22 1   
    28    21    25 2   
    29    21     3 1   
    30    22     3 ar  
    31    22    24 ar  
    32     3     4 ar  
    33    24     6 ar  
    34     4    50 1   
    35     4     5 ar  
    36     6     5 ar  
    37     2    33 1   
    38     2    34 1   
    39     2    35 1   
    40     5    36 1   
    41     6    37 1   
    42    14    38 1   
    43    14    39 1   
    44    15    40 1   
    45    15    41 1   
    46    16    42 1   
    47    18    43 1   
    48    24    44 1   
    49    26    45 1   
    50    28    46 1   
    51    31    47 1   
    52    31    48 1   
    53    31    49 1   
@<TRIPOS>SUBSTRUCTURE
     1 76C         1 TEMP              0 ****  ****    0 ROOT
