@<TRIPOS>MOLECULE
76C
   50    53     1     0     0
SMALL
bcc


@<TRIPOS>ATOM
      1 C10          2.9710     0.0110     4.0650 cg         1 76C       0.269800
      2 C13          0.0000     0.0000     0.0000 c3         1 76C      -0.012100
      3 C17          2.9390     3.4690    -1.9750 ca         1 76C      -0.213600
      4 C20          3.3990     4.6360    -2.5850 ca         1 76C       0.027400
      5 C21          3.4900     5.7970    -1.8470 ca         1 76C      -0.122000
      6 C22          3.1270     5.8130    -0.5070 ca         1 76C      -0.051000
      7 C26          2.2340    -0.1060    -2.6790 ca         1 76C      -0.225700
      8 C01          2.1510    -1.1910     2.0660 ca         1 76C       0.615200
      9 C02          2.6190    -1.2040     3.3960 ca         1 76C      -0.379600
     10 C03          2.7330    -2.4500     4.0460 ca         1 76C       0.658200
     11 N04          2.3960    -3.5520     3.3850 nb         1 76C      -0.758000
     12 C05          1.9600    -3.4910     2.1340 ca         1 76C       0.768900
     13 N06          1.8320    -2.3430     1.4860 nb         1 76C      -0.792000
     14 N07          3.1860    -2.5240     5.3470 nv         1 76C      -0.656500
     15 N08          1.6210    -4.6640     1.4890 nv         1 76C      -0.482500
     16 N09          2.0190     0.0000     1.3800 nu         1 76C      -0.473900
     17 N11          3.2350     0.9740     4.6090 n1         1 76C      -0.412800
     18 C12          1.5310     0.0000     0.0000 c3         1 76C       0.091200
     19 C14          2.0340     1.2300    -0.7110 cc         1 76C       0.281900
     20 N15          2.3650     1.1260    -2.0270 n          1 76C       0.169500
     21 C16          2.8210     2.2020    -2.7090 c          1 76C       0.616100
     22 C18          2.5750     3.4810    -0.6090 ca         1 76C       0.156400
     23 N19          2.1310     2.3340    -0.0360 nd         1 76C      -0.530100
     24 C23          2.6710     4.6720     0.1140 ca         1 76C      -0.093000
     25 O25          3.1220     2.1240    -3.8860 o          1 76C      -0.637500
     26 C27          1.0520    -0.4360    -3.3290 ca         1 76C       0.430200
     27 N28          0.9250    -1.5930    -3.9500 nb         1 76C      -0.556000
     28 C29          1.9040    -2.4760    -3.9810 ca         1 76C       0.405200
     29 C30          3.1130    -2.2190    -3.3570 ca         1 76C      -0.009400
     30 C31          3.2890    -1.0150    -2.6920 ca         1 76C      -0.054300
     31 C32          4.5910    -0.6950    -2.0040 c3         1 76C       0.051200
     32 F33          4.1080    -3.1310    -3.3950 f          1 76C      -0.113900
     33 H1          -0.3610    -0.0960     1.0170 hc         1 76C       0.018367
     34 H2          -0.3610     0.9290    -0.4250 hc         1 76C       0.018367
     35 H3          -0.3610    -0.8330    -0.5920 hc         1 76C       0.018367
     36 H4           3.8460     6.7080    -2.3130 ha         1 76C       0.120000
     37 H5           3.2030     6.7310     0.0630 ha         1 76C       0.109000
     38 H6           2.5330    -2.5350     6.1050 hn         1 76C       0.286800
     39 H7           4.1680    -2.5910     5.5320 hn         1 76C       0.286800
     40 H8           1.6580    -5.5350     1.9810 hn         1 76C       0.276300
     41 H9           1.3440    -4.6440     0.5270 hn         1 76C       0.276300
     42 H10          2.2070     0.8670     1.8430 hn         1 76C       0.328800
     43 H11          1.8920    -0.8850    -0.5110 h1         1 76C       0.069700
     44 H12          2.3920     4.7000     1.1600 ha         1 76C       0.125000
     45 H13          0.2010     0.2330    -3.2790 h4         1 76C      -0.007900
     46 H14          1.7670    -3.4170    -4.5010 h4         1 76C      -0.003900
     47 H15          5.3520    -0.4910    -2.7480 hc         1 76C       0.024700
     48 H16          4.8970    -1.5400    -1.3980 hc         1 76C       0.024700
     49 H17          4.4620     0.1750    -1.3720 hc         1 76C       0.024700
     50 Cl2          3.8540     4.6250    -4.2610 cl         1 76C       0.037600
@<TRIPOS>BOND
     1     1     9 1   
     2     1    17 3   
     3     2    18 1   
     4     2    33 1   
     5     2    34 1   
     6     2    35 1   
     7     3     4 ar  
     8     3    21 1   
     9     3    22 ar  
    10     4     5 ar  
    11     4    50 1   
    12     5     6 ar  
    13     5    36 1   
    14     6    24 ar  
    15     6    37 1   
    16     7    20 1   
    17     7    26 ar  
    18     7    30 ar  
    19     8     9 ar  
    20     8    13 ar  
    21     8    16 1   
    22     9    10 ar  
    23    10    11 ar  
    24    10    14 1   
    25    11    12 ar  
    26    12    13 ar  
    27    12    15 1   
    28    14    38 1   
    29    14    39 1   
    30    15    40 1   
    31    15    41 1   
    32    16    18 1   
    33    16    42 1   
    34    18    19 1   
    35    18    43 1   
    36    19    20 1   
    37    19    23 2   
    38    20    21 1   
    39    21    25 2   
    40    22    23 1   
    41    22    24 ar  
    42    24    44 1   
    43    26    27 ar  
    44    26    45 1   
    45    27    28 ar  
    46    28    29 ar  
    47    28    46 1   
    48    29    30 ar  
    49    29    32 1   
    50    30    31 1   
    51    31    47 1   
    52    31    48 1   
    53    31    49 1   
@<TRIPOS>SUBSTRUCTURE
     1 76C         1 TEMP              0 ****  ****    0 ROOT
