@<TRIPOS>MOLECULE
76D
   41    41     1     0     0
SMALL
bcc


@<TRIPOS>ATOM
      1 OAG        -0.0400   -0.2770    0.0350 o         1 76D     -0.827300
      2 CAK         1.1920    0.0030    0.0580 c         1 76D      0.905200
      3 OAH         1.8330    0.2830    1.1090 o         1 76D     -0.827300
      4 CAO         1.9510    0.0030   -1.2660 ca        1 76D     -0.082600
      5 CAM         2.3200    1.2160   -1.8730 ca        1 76D     -0.063800
      6 CAQ         1.9810    2.5260   -1.2290 c3        1 76D     -0.031400
      7 CAD         3.2270    3.3520   -0.9730 c3        1 76D     -0.079600
      8 CAC         0.9910    3.3040   -2.0760 c3        1 76D     -0.079600
      9 CAI         3.0090    1.2070   -3.0900 ca        1 76D     -0.136000
     10 CAL         3.3540    0.0040   -3.7110 ca        1 76D     -0.119300
     11 CAP         4.0980   -0.0070   -5.0090 c3        1 76D     -0.010400
     12 CAB         3.2970    0.6670   -6.1060 c3        1 76D     -0.084100
     13 CAA         5.4570    0.6520   -4.8670 c3        1 76D     -0.084100
     14 CAJ         2.9930   -1.1990   -3.1010 ca        1 76D     -0.136000
     15 CAN         2.2890   -1.2080   -1.8910 ca        1 76D     -0.063800
     16 CAR         1.9050   -2.5200   -1.2740 c3        1 76D     -0.031400
     17 CAF         1.0550   -3.3450   -2.2210 c3        1 76D     -0.079600
     18 CAE         3.1360   -3.2970   -0.8480 c3        1 76D     -0.079600
     19 H2          1.4990    2.3160   -0.2260 hc        1 76D      0.104700
     20 H3          2.9560    4.2970   -0.4430 hc        1 76D      0.023450
     21 H4          3.9410    2.7760   -0.3370 hc        1 76D      0.023450
     22 H5          3.7370    3.6190   -1.9300 hc        1 76D      0.023450
     23 H6          0.0580    2.7080   -2.2170 hc        1 76D      0.023450
     24 H7          0.7290    4.2660   -1.5720 hc        1 76D      0.023450
     25 H8          1.4220    3.5360   -3.0790 hc        1 76D      0.023450
     26 H9          3.2850    2.1600   -3.5650 ha        1 76D      0.108500
     27 H10         4.2670   -1.0810   -5.3160 hc        1 76D      0.035700
     28 H11         3.1100    1.7380   -5.8520 hc        1 76D      0.027533
     29 H12         2.3110    0.1590   -6.2320 hc        1 76D      0.027533
     30 H13         3.8510    0.6220   -7.0740 hc        1 76D      0.027533
     31 H14         6.0130    0.6070   -5.8340 hc        1 76D      0.027533
     32 H15         6.0590    0.1320   -4.0830 hc        1 76D      0.027533
     33 H16         5.3440    1.7220   -4.5700 hc        1 76D      0.027533
     34 H17         3.2620   -2.1540   -3.5770 ha        1 76D      0.108500
     35 H18         1.2820   -2.3100   -0.3520 hc        1 76D      0.104700
     36 H19         0.1450   -2.7690   -2.5150 hc        1 76D      0.023450
     37 H20         1.6240   -3.6120   -3.1440 hc        1 76D      0.023450
     38 H21         0.7340   -4.2900   -1.7200 hc        1 76D      0.023450
     39 H22         2.8340   -4.2590   -0.3670 hc        1 76D      0.023450
     40 H23         3.7290   -2.7010   -0.1140 hc        1 76D      0.023450
     41 H24         3.7840   -3.5280   -1.7270 hc        1 76D      0.023450
@<TRIPOS>BOND
     1    1    2 1   
     2    2    3 1   
     3    2    4 1   
     4    4    5 ar  
     5    4   15 ar  
     6    5    6 1   
     7    5    9 ar  
     8    6    7 1   
     9    6    8 1   
    10    6   19 1   
    11    7   20 1   
    12    7   21 1   
    13    7   22 1   
    14    8   23 1   
    15    8   24 1   
    16    8   25 1   
    17    9   10 ar  
    18    9   26 1   
    19   10   11 1   
    20   10   14 ar  
    21   11   12 1   
    22   11   13 1   
    23   11   27 1   
    24   12   28 1   
    25   12   29 1   
    26   12   30 1   
    27   13   31 1   
    28   13   32 1   
    29   13   33 1   
    30   14   15 ar  
    31   14   34 1   
    32   15   16 1   
    33   16   17 1   
    34   16   18 1   
    35   16   35 1   
    36   17   36 1   
    37   17   37 1   
    38   17   38 1   
    39   18   39 1   
    40   18   40 1   
    41   18   41 1   
@<TRIPOS>SUBSTRUCTURE
     1 76D         1 TEMP              0 ****  ****    0 ROOT
