@<TRIPOS>MOLECULE
molecule
   41    41     1     0     0
SMALL
bcc


@<TRIPOS>ATOM
      1 OAG          0.0000     0.0000     0.0000 o          1 76D      -0.834300
      2 CAK          1.2150     0.0000     0.0000 c          1 76D       0.881200
      3 OAH          1.8890     0.0000     1.1670 o          1 76D      -0.834300
      4 CAO          1.9530    -0.0050    -1.2800 ca         1 76D      -0.064600
      5 CAM          2.3030     1.1990    -1.8920 ca         1 76D      -0.065300
      6 CAQ          1.9300     2.5100    -1.2500 c3         1 76D      -0.025900
      7 CAD          3.1980     3.3120    -0.9520 c3         1 76D      -0.081100
      8 CAC          1.0340     3.3070    -2.2000 c3         1 76D      -0.081100
      9 CAI          2.9930     1.1870    -3.0870 ca         1 76D      -0.134500
     10 CAL          3.3380    -0.0160    -3.6780 ca         1 76D      -0.119300
     11 CAP          4.0850    -0.0210    -4.9860 c3         1 76D      -0.020400
     12 CAB          3.2550     0.6970    -6.0520 c3         1 76D      -0.083100
     13 CAA          5.4250     0.6980    -4.8110 c3         1 76D      -0.083100
     14 CAJ          2.9930    -1.2130    -3.0760 ca         1 76D      -0.134500
     15 CAN          2.3090    -1.2150    -1.8780 ca         1 76D      -0.065300
     16 CAR          1.9350    -2.5210    -1.2250 c3         1 76D      -0.025900
     17 CAF          1.0340    -3.3230    -2.1650 c3         1 76D      -0.081100
     18 CAE          3.2040    -3.3230    -0.9260 c3         1 76D      -0.081100
     19 H2           1.3970     2.3200    -0.3250 hc         1 76D       0.100700
     20 H3           2.9940     4.0360    -0.1720 hc         1 76D       0.025033
     21 H4           3.5170     3.8300    -1.8490 hc         1 76D       0.025033
     22 H5           3.9820     2.6400    -0.6250 hc         1 76D       0.025033
     23 H6           1.6480     3.8270    -2.9250 hc         1 76D       0.025033
     24 H7           0.4570     4.0280    -1.6330 hc         1 76D       0.025033
     25 H8           0.3610     2.6310    -2.7140 hc         1 76D       0.025033
     26 H9           3.2660     2.1210    -3.5640 ha         1 76D       0.109500
     27 H10          4.2630    -1.0440    -5.2960 hc         1 76D       0.041700
     28 H11          3.2670     1.7630    -5.8600 hc         1 76D       0.028367
     29 H12          3.6770     0.5010    -7.0300 hc         1 76D       0.028367
     30 H13          2.2350     0.3360    -6.0190 hc         1 76D       0.028367
     31 H14          5.9150     0.3350    -3.9160 hc         1 76D       0.028367
     32 H15          6.0540     0.5040    -5.6710 hc         1 76D       0.028367
     33 H16          5.2530     1.7640    -4.7220 hc         1 76D       0.028367
     34 H17          3.2680    -2.1520    -3.5420 ha         1 76D       0.109500
     35 H18          1.4070    -2.3230    -0.3000 hc         1 76D       0.100700
     36 H19          1.6420    -3.8280    -2.9050 hc         1 76D       0.025033
     37 H20          0.3430    -2.6520    -2.6620 hc         1 76D       0.025033
     38 H21          0.4770    -4.0560    -1.5940 hc         1 76D       0.025033
     39 H22          3.9820    -2.6520    -0.5820 hc         1 76D       0.025033
     40 H23          3.5330    -3.8260    -1.8260 hc         1 76D       0.025033
     41 H24          2.9940    -4.0570    -0.1570 hc         1 76D       0.025033
@<TRIPOS>BOND
     1    12    11 1
     2    13    11 1
     3    11    10 1
     4    10    14 ar
     5    10     9 ar
     6    14    15 ar
     7     9     5 ar
     8    17    16 1
     9    15    16 1
    10    15     4 ar
    11    18    16 1
    12     5     4 ar
    13     5     6 1
    14     4     2 1
    15     7     6 1
    16     6     8 1
    17     2     1 1
    18     2     3 1
    19     6    19 1
    20     7    20 1
    21     7    21 1
    22     7    22 1
    23     8    23 1
    24     8    24 1
    25     8    25 1
    26     9    26 1
    27    11    27 1
    28    12    28 1
    29    12    29 1
    30    12    30 1
    31    13    31 1
    32    13    32 1
    33    13    33 1
    34    14    34 1
    35    16    35 1
    36    17    36 1
    37    17    37 1
    38    17    38 1
    39    18    39 1
    40    18    40 1
    41    18    41 1
@<TRIPOS>SUBSTRUCTURE
     1 76D         1 TEMP              0 ****  ****    0 ROOT
