@<TRIPOS>MOLECULE
76E
   52    55     1     0     0
SMALL
bcc


@<TRIPOS>ATOM
      1 C1           0.0000     0.0000     0.0000 ca         1 76E      -0.136000
      2 C2           9.2820    -3.7080     2.9820 ca         1 76E      -0.048000
      3 C3           1.3830     0.0000     0.0000 ca         1 76E       0.009000
      4 C4           2.2950    -4.8130     2.7250 ca         1 76E      -0.085000
      5 C5           0.9420    -5.0610     2.8510 ca         1 76E      -0.101000
      6 C6           8.5550    -3.7700     1.8070 ca         1 76E      -0.137000
      7 C7          -0.6910    -0.0000     1.1960 ca         1 76E       0.037000
      8 C8           8.6570    -3.8950     4.2010 ca         1 76E      -0.116000
      9 C9           2.0760    -2.8740     4.1310 ca         1 76E      -0.112000
     10 C10          1.3820     0.0000     2.3940 ca         1 76E       0.067000
     11 C11          6.5570    -4.2130     3.0730 ca         1 76E      -0.180600
     12 C12          0.7310    -3.1350     4.2660 ca         1 76E      -0.156300
     13 C13          2.0730     0.0000     1.1970 ca         1 76E      -0.245300
     14 C14          2.8660    -3.7160     3.3560 ca         1 76E      -0.097400
     15 C15          0.1510    -4.2120     3.6110 ca         1 76E       0.118100
     16 C16          7.1960    -4.0220     1.8430 ca         1 76E       0.151900
     17 C17         -0.0000    -0.0010     2.3940 ca         1 76E      -0.168500
     18 C18          7.3010    -4.1480     4.2550 ca         1 76E       0.012400
     19 C19          5.1070    -4.4820     3.1220 c          1 76E       0.590700
     20 C20         -0.1340    -2.2790     5.1680 c3         1 76E       0.291100
     21 C21         -2.3350    -2.2770     3.8970 c3         1 76E       0.188800
     22 C22         -1.9930    -3.4400     2.9780 c3         1 76E       0.194400
     23 C23          3.5800    -0.0020     1.1970 c3         1 76E       0.645200
     24 N24         -1.1280    -1.5810     4.3450 n3         1 76E      -0.516500
     25 O26          4.6990    -5.6260     3.0790 o          1 76E      -0.614100
     26 O29         -1.1930    -4.4020     3.6740 os         1 76E      -0.320900
     27 F30          6.4880    -4.0830     0.6950 f          1 76E      -0.119900
     28 F31          4.0470    -0.0020    -0.1220 f          1 76E      -0.206967
     29 F32          4.0480     1.1400     1.8560 f          1 76E      -0.206967
     30 F33          4.0460    -1.1440     1.8570 f          1 76E      -0.206967
     31 S34         -0.8820     0.0000     3.9200 sy         1 76E       1.052200
     32 Cl35         6.5190    -4.3830     5.7880 cl         1 76E       0.006600
     33 H1          -0.5410     0.0000    -0.9380 ha         1 76E       0.118000
     34 H3           1.9250    -0.0000    -0.9380 ha         1 76E       0.122000
     35 H7          -1.7750    -0.0010     1.1960 ha         1 76E       0.124000
     36 H6           9.0520    -3.6220     0.8560 ha         1 76E       0.125000
     37 H8           9.2330    -3.8450     5.1170 ha         1 76E       0.122000
     38 H4           2.9100    -5.4690     2.1210 ha         1 76E       0.150000
     39 H5           0.4990    -5.9180     2.3570 ha         1 76E       0.118000
     40 H9           2.5170    -2.0170     4.6260 ha         1 76E       0.115000
     41 H10          1.9230     0.0000     3.3330 ha         1 76E       0.131000
     42 H201        -0.6390    -2.9090     5.8900 h1         1 76E       0.042200
     43 H202         0.4850    -1.5530     5.6810 h1         1 76E       0.042200
     44 H211        -2.9670    -1.5780     3.3610 h1         1 76E       0.038200
     45 H212        -2.8670    -2.6540     4.7620 h1         1 76E       0.038200
     46 H221        -2.9090    -3.9130     2.6440 h1         1 76E       0.013700
     47 H222        -1.4420    -3.0700     2.1230 h1         1 76E       0.013700
     48 N25          4.2350    -3.4580     3.2130 ns         1 76E      -0.027100
     49 O27         -0.0000     0.5440     4.8920 o          1 76E      -0.583300
     50 O28         -2.1650     0.5450     3.6420 o          1 76E      -0.583300
     51 H2          10.3460    -3.5110     2.9470 ha         1 76E       0.111000
     52 H25          4.5710    -2.5160     3.2310 hn         1 76E       0.182500
@<TRIPOS>BOND
     1     1     3 ar  
     2     1     7 ar  
     3     1    33 1   
     4     2     6 ar  
     5     2     8 ar  
     6     2    51 1   
     7     3    13 ar  
     8     3    34 1   
     9     4     5 ar  
    10     4    14 ar  
    11     4    38 1   
    12     5    15 ar  
    13     5    39 1   
    14     6    16 ar  
    15     6    36 1   
    16     7    17 ar  
    17     7    35 1   
    18     8    18 ar  
    19     8    37 1   
    20     9    12 ar  
    21     9    14 ar  
    22     9    40 1   
    23    10    13 ar  
    24    10    17 ar  
    25    10    41 1   
    26    11    16 ar  
    27    11    18 ar  
    28    11    19 1   
    29    12    15 ar  
    30    12    20 1   
    31    13    23 1   
    32    14    48 1   
    33    15    26 1   
    34    16    27 1   
    35    17    31 1   
    36    18    32 1   
    37    19    25 2   
    38    19    48 1   
    39    20    24 1   
    40    20    42 1   
    41    20    43 1   
    42    21    22 1   
    43    21    24 1   
    44    21    44 1   
    45    21    45 1   
    46    22    26 1   
    47    22    46 1   
    48    22    47 1   
    49    23    28 1   
    50    23    29 1   
    51    23    30 1   
    52    24    31 1   
    53    31    49 2   
    54    31    50 2   
    55    48    52 1   
@<TRIPOS>SUBSTRUCTURE
     1 76E         1 TEMP              0 ****  ****    0 ROOT
