@<TRIPOS>MOLECULE
molecule
   52    55     1     0     0
SMALL
bcc


@<TRIPOS>ATOM
      1 C1           0.0000     0.0000     0.0000 ca         1 76E      -0.154000
      2 C2           9.2820    -3.7080     2.9820 ca         1 76E      -0.078000
      3 C3           1.3830     0.0000     0.0000 ca         1 76E      -0.030000
      4 C4           2.2950    -4.8130     2.7250 ca         1 76E      -0.112000
      5 C5           0.9420    -5.0610     2.8510 ca         1 76E      -0.123000
      6 C6           8.5550    -3.7700     1.8070 ca         1 76E      -0.171000
      7 C7          -0.6910    -0.0000     1.1960 ca         1 76E      -0.004000
      8 C8           8.6570    -3.8950     4.2010 ca         1 76E      -0.141000
      9 C9           2.0760    -2.8740     4.1310 ca         1 76E      -0.144000
     10 C10          1.3820     0.0000     2.3940 ca         1 76E       0.024000
     11 C11          6.5570    -4.2130     3.0730 ca         1 76E      -0.178600
     12 C12          0.7310    -3.1350     4.2660 ca         1 76E      -0.139300
     13 C13          2.0730     0.0000     1.1970 ca         1 76E      -0.203300
     14 C14          2.8660    -3.7160     3.3560 ca         1 76E       0.055600
     15 C15          0.1510    -4.2120     3.6110 ca         1 76E       0.104100
     16 C16          7.1960    -4.0220     1.8430 ca         1 76E       0.176900
     17 C17         -0.0000    -0.0010     2.3940 ca         1 76E      -0.316500
     18 C18          7.3010    -4.1480     4.2550 ca         1 76E       0.078400
     19 C19          5.1070    -4.4820     3.1220 c          1 76E       0.682700
     20 C20         -0.1340    -2.2790     5.1680 c3         1 76E       0.282100
     21 C21         -2.3350    -2.2770     3.8970 c3         1 76E       0.198800
     22 C22         -1.9930    -3.4400     2.9780 c3         1 76E       0.125400
     23 C23          3.5800    -0.0020     1.1970 c3         1 76E       0.678200
     24 N24         -1.1280    -1.5810     4.3450 n3         1 76E      -0.809500
     25 O26          4.6990    -5.6260     3.0790 o          1 76E      -0.570100
     26 O29         -1.1930    -4.4020     3.6740 os         1 76E      -0.338900
     27 F30          6.4880    -4.0830     0.6950 f          1 76E      -0.123900
     28 F31          4.0470    -0.0020    -0.1220 f          1 76E      -0.223633
     29 F32          4.0480     1.1400     1.8560 f          1 76E      -0.223633
     30 F33          4.0460    -1.1440     1.8570 f          1 76E      -0.223633
     31 S34         -0.8820     0.0000     3.9200 sy         1 76E       1.422200
     32 Cl35         6.5190    -4.3830     5.7880 cl         1 76E      -0.075400
     33 H1          -0.5410     0.0000    -0.9380 ha         1 76E       0.147000
     34 H3           1.9250    -0.0000    -0.9380 ha         1 76E       0.155000
     35 H7          -1.7750    -0.0010     1.1960 ha         1 76E       0.154000
     36 H6           9.0520    -3.6220     0.8560 ha         1 76E       0.155000
     37 H8           9.2330    -3.8450     5.1170 ha         1 76E       0.154000
     38 H4           2.9100    -5.4690     2.1210 ha         1 76E       0.173000
     39 H5           0.4990    -5.9180     2.3570 ha         1 76E       0.149000
     40 H9           2.5170    -2.0170     4.6260 ha         1 76E       0.137000
     41 H10          1.9230     0.0000     3.3330 ha         1 76E       0.160000
     42 H201        -0.6390    -2.9090     5.8900 h1         1 76E       0.080200
     43 H202         0.4850    -1.5530     5.6810 h1         1 76E       0.080200
     44 H211        -2.9670    -1.5780     3.3610 h1         1 76E       0.071700
     45 H212        -2.8670    -2.6540     4.7620 h1         1 76E       0.071700
     46 H221        -2.9090    -3.9130     2.6440 h1         1 76E       0.055700
     47 H222        -1.4420    -3.0700     2.1230 h1         1 76E       0.055700
     48 N25          4.2350    -3.4580     3.2130 ns         1 76E      -0.464100
     49 O27         -0.0000     0.5440     4.8920 o          1 76E      -0.630800
     50 O28         -2.1650     0.5450     3.6420 o          1 76E      -0.630800
     51 H2          10.3460    -3.5110     2.9470 ha         1 76E       0.147000
     52 H25          4.5710    -2.5160     3.2310 hn         1 76E       0.337500
@<TRIPOS>BOND
     1     1     3 ar
     2     1     7 ar
     3     2     6 ar
     4     2     8 ar
     5     3    13 ar
     6     4     5 ar
     7     4    14 ar
     8     5    15 ar
     9     6    16 ar
    10     7    17 ar
    11     8    18 ar
    12     9    12 ar
    13     9    14 ar
    14    10    13 ar
    15    10    17 ar
    16    11    16 ar
    17    11    18 ar
    18    11    19 1
    19    12    15 ar
    20    12    20 1
    21    13    23 1
    22    14    48 1
    23    15    26 1
    24    16    27 1
    25    17    31 1
    26    18    32 1
    27    19    48 1
    28    19    25 2
    29    20    24 1
    30    21    22 1
    31    21    24 1
    32    22    26 1
    33    23    28 1
    34    23    29 1
    35    23    30 1
    36    24    31 1
    37    49    31 2
    38    50    31 2
    39     1    33 1
    40     3    34 1
    41     7    35 1
    42     2    51 1
    43     6    36 1
    44     8    37 1
    45     4    38 1
    46     5    39 1
    47     9    40 1
    48    10    41 1
    49    20    42 1
    50    20    43 1
    51    48    52 1
    52    21    44 1
    53    21    45 1
    54    22    46 1
    55    22    47 1
@<TRIPOS>SUBSTRUCTURE
     1 76E         1 TEMP              0 ****  ****    0 ROOT
