@<TRIPOS>MOLECULE
76G
   52    55     1     0     0
SMALL
bcc


@<TRIPOS>ATOM
      1 N1           0.0000     0.0000     0.0000 ns         1 76G      -0.211900
      2 C4          -3.0000     0.0070     2.3170 c3         1 76G      -0.024400
      3 C5          -4.5040     0.0150     2.0390 c3         1 76G       0.060800
      4 C6          -5.2570     0.0140     3.3440 cc         1 76G       0.015400
      5 C8          -5.6230     1.1050     3.9930 cd         1 76G      -0.101200
      6 C10         -6.4990    -0.5010     5.4870 ca         1 76G      -0.102400
      7 N12         -7.6450    -0.0030     7.4820 nb         1 76G      -0.576000
      8 C13         -7.5140     1.2970     7.2710 ca         1 76G       0.399200
      9 C17          3.4820     0.0120    -3.6870 ca         1 76G      -0.107000
     10 C20          2.0860     0.0180    -3.6900 cp         1 76G      -0.039000
     11 C21          1.3470     0.0310    -4.9760 cp         1 76G      -0.041000
     12 C22          1.3480     0.0000     0.0000 c          1 76G       0.596700
     13 C24          4.1760    -0.0010    -2.4920 ca         1 76G       0.066100
     14 C26          1.3540     0.0490    -7.3760 ca         1 76G      -0.126000
     15 C28         -0.7290     0.0380    -6.1800 ca         1 76G      -0.126000
     16 C2          -0.7310     0.0000     1.2700 c3         1 76G       0.053000
     17 C3          -2.2360     0.0070     0.9910 c3         1 76G      -0.042400
     18 S7          -5.7630    -1.4340     4.1930 ss         1 76G      -0.196500
     19 C9          -6.3390     0.8660     5.2300 ca         1 76G      -0.048800
     20 C11         -7.1710    -0.8980     6.6430 ca         1 76G       0.458200
     21 C14         -6.8750     1.7760     6.1690 ca         1 76G      -0.181300
     22 O15          5.5360    -0.0130    -2.4970 oh         1 76G      -0.494100
     23 O16          4.1680    -0.0120    -0.1100 oh         1 76G      -0.460100
     24 C18          2.0850    -0.0000    -1.2790 ca         1 76G      -0.169600
     25 C19          1.3880     0.0120    -2.4890 ca         1 76G      -0.083000
     26 C23          3.4850    -0.0010    -1.2830 ca         1 76G       0.175100
     27 C25          2.0450     0.0370    -6.1830 ca         1 76G      -0.076000
     28 C27         -0.0310     0.0560    -7.3780 ca         1 76G       0.105900
     29 C29         -0.0460     0.0320    -4.9820 ca         1 76G      -0.076000
     30 F30         -0.7050     0.0610    -8.5490 f          1 76G      -0.126900
     31 O31          1.9570    -0.0010     1.0510 o          1 76G      -0.623100
     32 H1          -0.5000    -0.0500    -0.8650 hn         1 76G       0.176500
     33 H2          -2.7340     0.8890     2.8870 hc         1 76G       0.026200
     34 H3          -2.7420    -0.8800     2.8830 hc         1 76G       0.026200
     35 H4          -4.7620     0.9020     1.4740 hc         1 76G       0.024700
     36 H5          -4.7700    -0.8670     1.4680 hc         1 76G       0.024700
     37 H6          -5.4060     2.1020     3.6280 ha         1 76G       0.126000
     38 H7          -7.9220     1.9940     7.9930 h4         1 76G      -0.017900
     39 H8           4.0240     0.0180    -4.6250 ha         1 76G       0.122000
     40 H9           1.8960     0.0590    -8.3150 ha         1 76G       0.119500
     41 H10         -1.8130     0.0410    -6.1860 ha         1 76G       0.119500
     42 H11         -0.4650     0.8820     1.8400 h1         1 76G       0.028700
     43 H12         -0.4720    -0.8870     1.8360 h1         1 76G       0.028700
     44 H13         -2.4940     0.8930     0.4250 hc         1 76G       0.016200
     45 H14         -2.5020    -0.8760     0.4220 hc         1 76G       0.016200
     46 H15         -7.3000    -1.9530     6.8540 h4         1 76G      -0.012900
     47 H16         -6.7780     2.8440     6.0140 ha         1 76G       0.115000
     48 H17          5.8420    -0.8780    -2.7150 ho         1 76G       0.410000
     49 H18          4.5950     0.8200     0.0120 ho         1 76G       0.413000
     50 H19          0.3040     0.0170    -2.4900 ha         1 76G       0.113000
     51 H20          3.1280     0.0320    -6.1830 ha         1 76G       0.113000
     52 H21         -0.5930     0.0180    -4.0460 ha         1 76G       0.113000
@<TRIPOS>BOND
     1     1    12 1   
     2     1    16 1   
     3     1    32 1   
     4     2     3 1   
     5     2    17 1   
     6     2    33 1   
     7     2    34 1   
     8     3     4 1   
     9     3    35 1   
    10     3    36 1   
    11     4     5 2   
    12     4    18 1   
    13     5    19 1   
    14     5    37 1   
    15     6    18 1   
    16     6    19 ar  
    17     6    20 ar  
    18     7     8 ar  
    19     7    20 ar  
    20     8    21 ar  
    21     8    38 1   
    22     9    10 ar  
    23     9    13 ar  
    24     9    39 1   
    25    10    11 1   
    26    10    25 ar  
    27    11    27 ar  
    28    11    29 ar  
    29    12    24 1   
    30    12    31 2   
    31    13    22 1   
    32    13    26 ar  
    33    14    27 ar  
    34    14    28 ar  
    35    14    40 1   
    36    15    28 ar  
    37    15    29 ar  
    38    15    41 1   
    39    16    17 1   
    40    16    42 1   
    41    16    43 1   
    42    17    44 1   
    43    17    45 1   
    44    19    21 ar  
    45    20    46 1   
    46    21    47 1   
    47    22    48 1   
    48    23    26 1   
    49    23    49 1   
    50    24    25 ar  
    51    24    26 ar  
    52    25    50 1   
    53    27    51 1   
    54    28    30 1   
    55    29    52 1   
@<TRIPOS>SUBSTRUCTURE
     1 76G         1 TEMP              0 ****  ****    0 ROOT
