@<TRIPOS>MOLECULE
molecule
   60    62     1     0     0
SMALL
bcc


@<TRIPOS>ATOM
      1 C4           0.0000     0.0000     0.0000 ca         1 76H       0.451800
      2 C5           1.4050     0.0000     0.0000 ca         1 76H      -0.164200
      3 C6           2.0680     0.0000     1.2390 ca         1 76H       0.791200
      4 C8           0.7590    -0.0060    -2.0700 cc         1 76H       0.419700
      5 N1           1.3370    -0.0010     2.3490 nb         1 76H      -0.761000
      6 N3          -0.6460     0.0040     1.1610 nb         1 76H      -0.756000
      7 C            0.8990     1.1640    -9.0160 c          1 76H       0.861600
      8 CA          -0.4560     0.5040    -8.9760 c3         1 76H      -0.019500
      9 N           -1.4440     1.3780    -9.6210 nz         1 76H      -0.793600
     10 CB          -0.8620     0.2620    -7.5210 c3         1 76H      -0.084400
     11 CAM         -2.1780    -0.5180    -7.4820 c3         1 76H      -0.130400
     12 CAY         -2.5170    -0.8740    -6.0320 c3         1 76H       0.111500
     13 NAR         -3.7070    -1.7340    -6.0060 ny         1 76H      -0.737000
     14 CAK         -3.3960    -3.0210    -6.6420 c3         1 76H       0.090800
     15 CAJ         -4.5930    -3.9630    -6.4980 c3         1 76H      -0.112400
     16 CAA         -4.2690    -5.3040    -7.1600 c3         1 76H      -0.087100
     17 CBB         -3.0110     0.0620    -3.7690 c3         1 76H       0.114100
     18 OAS         -1.7880    -0.4370    -3.2000 os         1 76H      -0.429600
     19 CAZ         -3.3980     1.3310    -2.9850 c3         1 76H       0.089100
     20 OAF         -4.6840     1.1740    -2.3830 oh         1 76H      -0.567800
     21 CBA         -2.3020     1.4530    -1.8980 c3         1 76H       0.100100
     22 OAG         -2.8680     1.8470    -0.6460 oh         1 76H      -0.544800
     23 CBC         -1.7520     0.0060    -1.8260 c3         1 76H       0.272800
     24 N9          -0.3780    -0.0000    -1.3190 na         1 76H      -0.272000
     25 N7           1.8040     0.0010    -1.2940 nd         1 76H      -0.547100
     26 C2           0.0170    -0.0010     2.2980 ca         1 76H       0.718900
     27 N6           3.4500    -0.0000     1.3010 nv         1 76H      -1.069500
     28 H1           0.7880    -0.0150    -3.1530 h5         1 76H       0.079800
     29 H3          -0.4130    -0.4420    -9.5010 hx         1 76H       0.109700
     30 H5          -1.7380     2.0840    -8.9750 hn         1 76H       0.442467
     31 H8          -0.0880    -0.3090    -7.0210 hc         1 76H       0.097200
     32 H7          -0.9900     1.2130    -7.0190 hc         1 76H       0.097200
     33 H9          -2.9710     0.0900    -7.8990 hc         1 76H       0.050200
     34 H10         -2.0760    -1.4270    -8.0630 hc         1 76H       0.050200
     35 H11         -1.6820    -1.3990    -5.5850 hx         1 76H       0.141700
     36 H32         -4.4520    -1.2880    -6.5030 hn         1 76H       0.450300
     37 H15         -3.1850    -2.8630    -7.6920 hx         1 76H       0.108200
     38 H14         -2.5300    -3.4610    -6.1620 hx         1 76H       0.108200
     39 H17         -4.8040    -4.1210    -5.4470 hc         1 76H       0.064200
     40 H16         -5.4580    -3.5230    -6.9780 hc         1 76H       0.064200
     41 H20         -5.1100    -5.9770    -7.0430 hc         1 76H       0.061700
     42 H18         -4.0740    -5.1490    -8.2140 hc         1 76H       0.061700
     43 H19         -3.3930    -5.7370    -6.6910 hc         1 76H       0.061700
     44 H23         -3.7920    -0.6820    -3.6710 h1         1 76H       0.046700
     45 H24         -3.3800     2.1960    -3.6360 h1         1 76H       0.052700
     46 H25         -5.2400     1.8900    -2.6400 ho         1 76H       0.418000
     47 H26         -1.5270     2.1420    -2.2120 h1         1 76H       0.071700
     48 H27         -2.7650     2.7770    -0.5330 ho         1 76H       0.419000
     49 H28         -2.3950    -0.6140    -1.2120 h2         1 76H       0.119700
     50 H29         -0.5400    -0.0020     3.2270 h5         1 76H       0.072100
     51 H31          3.9560     0.8580     1.2010 hn         1 76H       0.452300
     52 H30          3.9450    -0.8590     1.4410 hn         1 76H       0.452300
     53 H6          -2.2360     0.8350    -9.9040 hn         1 76H       0.442467
     54 H12         -3.9850    -1.8900    -5.0570 hn         1 76H       0.450300
     55 OXT          2.0090     0.4250    -8.8640 o          1 76H      -0.747800
     56 O            0.9850     2.3560    -9.1850 o          1 76H      -0.747800
     57 CAN         -2.7950     0.4080    -5.2450 c3         1 76H      -0.115400
     58 H4          -1.0330     1.8110   -10.4240 hn         1 76H       0.442467
     59 H21         -3.6830     0.8870    -5.6380 hc         1 76H       0.087700
     60 H22         -1.9500     1.0790    -5.3390 hc         1 76H       0.087700
@<TRIPOS>BOND
     1    16    15 1   
     2    15    14 1   
     3    14    13 1   
     4    27     3 1   
     5    20    19 1   
     6    13    12 1   
     7    19    17 1   
     8    19    21 1   
     9    25     2 1   
    10    25     4 2   
    11    57    12 1   
    12    57    17 1   
    13     3     2 ar  
    14     3     5 ar  
    15     2     1 ar  
    16     4    24 1   
    17     5    26 ar  
    18    12    11 1   
    19    17    18 1   
    20    21    23 1   
    21    21    22 1   
    22     1    24 1   
    23     1     6 ar  
    24    24    23 1   
    25    26     6 ar  
    26    23    18 1   
    27    11    10 1   
    28    10     8 1   
    29     8     9 1   
    30     8     7 1   
    31     7    56 1   
    32     7    55 1   
    33     4    28 1   
    34     8    29 1   
    35     9    58 1   
    36     9    30 1   
    37    10    31 1   
    38    10    32 1   
    39    11    33 1   
    40    11    34 1   
    41    12    35 1   
    42    13    36 1   
    43    14    37 1   
    44    14    38 1   
    45    15    39 1   
    46    15    40 1   
    47    16    41 1   
    48    16    42 1   
    49    16    43 1   
    50    57    59 1   
    51    57    60 1   
    52    17    44 1   
    53    19    45 1   
    54    20    46 1   
    55    21    47 1   
    56    22    48 1   
    57    23    49 1   
    58    26    50 1   
    59    27    51 1   
    60    27    52 1   
    61     9    53 1   
    62    13    54 1   
@<TRIPOS>SUBSTRUCTURE
     1 76H         1 TEMP              0 ****  ****    0 ROOT
