@<TRIPOS>MOLECULE
76H
   60    62     1     0     0
SMALL
bcc


@<TRIPOS>ATOM
      1 C4           0.0000     0.0000     0.0000 ca         1 76H       0.239800
      2 C5           1.4050     0.0000     0.0000 ca         1 76H      -0.192200
      3 C6           2.0680     0.0000     1.2390 ca         1 76H       0.613200
      4 C8           0.7590    -0.0060    -2.0700 cc         1 76H       0.244700
      5 N1           1.3370    -0.0010     2.3490 nb         1 76H      -0.647000
      6 N3          -0.6460     0.0040     1.1610 nb         1 76H      -0.623000
      7 C            0.8990     1.1640    -9.0160 c          1 76H       0.944600
      8 CA          -0.4560     0.5040    -8.9760 c3         1 76H      -0.206500
      9 N           -1.4440     1.3780    -9.6210 nz         1 76H       0.082400
     10 CB          -0.8620     0.2620    -7.5210 c3         1 76H      -0.015400
     11 CAM         -2.1780    -0.5180    -7.4820 c3         1 76H      -0.065400
     12 CAY         -2.5170    -0.8740    -6.0320 c3         1 76H      -0.051500
     13 NAR         -3.7070    -1.7340    -6.0060 ny         1 76H       0.016000
     14 CAK         -3.3960    -3.0210    -6.6420 c3         1 76H      -0.045200
     15 CAJ         -4.5930    -3.9630    -6.4980 c3         1 76H      -0.033400
     16 CAA         -4.2690    -5.3040    -7.1600 c3         1 76H       0.017900
     17 CBB         -3.0110     0.0620    -3.7690 c3         1 76H       0.151100
     18 OAS         -1.7880    -0.4370    -3.2000 os         1 76H      -0.414600
     19 CAZ         -3.3980     1.3310    -2.9850 c3         1 76H       0.131100
     20 OAF         -4.6840     1.1740    -2.3830 oh         1 76H      -0.546800
     21 CBA         -2.3020     1.4530    -1.8980 c3         1 76H       0.133100
     22 OAG         -2.8680     1.8470    -0.6460 oh         1 76H      -0.526800
     23 CBC         -1.7520     0.0060    -1.8260 c3         1 76H       0.175800
     24 N9          -0.3780    -0.0000    -1.3190 na         1 76H       0.174000
     25 N7           1.8040     0.0010    -1.2940 nd         1 76H      -0.452100
     26 C2           0.0170    -0.0010     2.2980 ca         1 76H       0.656900
     27 N6           3.4500    -0.0000     1.3010 nv         1 76H      -0.637500
     28 H1           0.7880    -0.0150    -3.1530 h5         1 76H       0.031800
     29 H3          -0.4130    -0.4420    -9.5010 hx         1 76H       0.090700
     30 H5          -1.7380     2.0840    -8.9750 hn         1 76H       0.213467
     31 H8          -0.0880    -0.3090    -7.0210 hc         1 76H       0.066200
     32 H7          -0.9900     1.2130    -7.0190 hc         1 76H       0.066200
     33 H9          -2.9710     0.0900    -7.8990 hc         1 76H       0.024200
     34 H10         -2.0760    -1.4270    -8.0630 hc         1 76H       0.024200
     35 H11         -1.6820    -1.3990    -5.5850 hx         1 76H       0.118700
     36 H32         -4.4520    -1.2880    -6.5030 hn         1 76H       0.248800
     37 H15         -3.1850    -2.8630    -7.6920 hx         1 76H       0.085700
     38 H14         -2.5300    -3.4610    -6.1620 hx         1 76H       0.085700
     39 H17         -4.8040    -4.1210    -5.4470 hc         1 76H       0.031200
     40 H16         -5.4580    -3.5230    -6.9780 hc         1 76H       0.031200
     41 H20         -5.1100    -5.9770    -7.0430 hc         1 76H       0.024033
     42 H18         -4.0740    -5.1490    -8.2140 hc         1 76H       0.024033
     43 H19         -3.3930    -5.7370    -6.6910 hc         1 76H       0.024033
     44 H23         -3.7920    -0.6820    -3.6710 h1         1 76H       0.016700
     45 H24         -3.3800     2.1960    -3.6360 h1         1 76H       0.017700
     46 H25         -5.2400     1.8900    -2.6400 ho         1 76H       0.403000
     47 H26         -1.5270     2.1420    -2.2120 h1         1 76H       0.033700
     48 H27         -2.7650     2.7770    -0.5330 ho         1 76H       0.403000
     49 H28         -2.3950    -0.6140    -1.2120 h2         1 76H       0.074700
     50 H29         -0.5400    -0.0020     3.2270 h5         1 76H       0.005100
     51 H31          3.9560     0.8580     1.2010 hn         1 76H       0.288800
     52 H30          3.9450    -0.8590     1.4410 hn         1 76H       0.288800
     53 H6          -2.2360     0.8350    -9.9040 hn         1 76H       0.213467
     54 H12         -3.9850    -1.8900    -5.0570 hn         1 76H       0.248800
     55 OXT          2.0090     0.4250    -8.8640 o          1 76H      -0.788800
     56 O            0.9850     2.3560    -9.1850 o          1 76H      -0.788800
     57 CAN         -2.7950     0.4080    -5.2450 c3         1 76H      -0.060400
     58 H4          -1.0330     1.8110   -10.4240 hn         1 76H       0.213467
     59 H21         -3.6830     0.8870    -5.6380 hc         1 76H       0.058200
     60 H22         -1.9500     1.0790    -5.3390 hc         1 76H       0.058200
@<TRIPOS>BOND
     1     1     2 ar  
     2     1     6 ar  
     3     1    24 1   
     4     2     3 ar  
     5     2    25 1   
     6     3     5 ar  
     7     3    27 1   
     8     4    24 1   
     9     4    25 2   
    10     4    28 1   
    11     5    26 ar  
    12     6    26 ar  
    13     7     8 1   
    14     7    55 1   
    15     7    56 1   
    16     8     9 1   
    17     8    10 1   
    18     8    29 1   
    19     9    30 1   
    20     9    53 1   
    21     9    58 1   
    22    10    11 1   
    23    10    31 1   
    24    10    32 1   
    25    11    12 1   
    26    11    33 1   
    27    11    34 1   
    28    12    13 1   
    29    12    35 1   
    30    12    57 1   
    31    13    14 1   
    32    13    36 1   
    33    13    54 1   
    34    14    15 1   
    35    14    37 1   
    36    14    38 1   
    37    15    16 1   
    38    15    39 1   
    39    15    40 1   
    40    16    41 1   
    41    16    42 1   
    42    16    43 1   
    43    17    18 1   
    44    17    19 1   
    45    17    44 1   
    46    17    57 1   
    47    18    23 1   
    48    19    20 1   
    49    19    21 1   
    50    19    45 1   
    51    20    46 1   
    52    21    22 1   
    53    21    23 1   
    54    21    47 1   
    55    22    48 1   
    56    23    24 1   
    57    23    49 1   
    58    26    50 1   
    59    27    51 1   
    60    27    52 1   
    61    57    59 1   
    62    57    60 1   
@<TRIPOS>SUBSTRUCTURE
     1 76H         1 TEMP              0 ****  ****    0 ROOT
