@<TRIPOS>MOLECULE
76J
   66    68     1     0     0
SMALL
bcc


@<TRIPOS>ATOM
      1 C1           0.0000     0.0000     0.0000 c3         1 76J       0.009900
      2 C2           1.5300     0.0000     0.0000 c3         1 76J      -0.024400
      3 C3           2.0400     0.0000     1.4420 c3         1 76J      -0.018400
      4 C5           4.0810    -0.0010     2.8840 c3         1 76J      -0.041200
      5 C7           6.0400     0.1260     4.2620 c3         1 76J      -0.052500
      6 C8           5.6530    -1.1230     5.0580 c3         1 76J      -0.064400
      7 C10          5.5440    -2.1270     7.3430 c3         1 76J      -0.205500
      8 C12          6.0320    -2.0000     8.7640 c          1 76J       0.944600
      9 C15          7.5630     0.2710     4.2510 c3         1 76J      -0.057400
     10 C16          7.9450     1.5830     3.5630 c3         1 76J       0.149100
     11 O17          7.4960     2.6980     4.3530 os         1 76J      -0.420600
     12 C19          9.8250     2.9940     4.2080 c3         1 76J       0.133100
     13 C21          9.4780     1.6890     3.4500 c3         1 76J       0.133100
     14 C24          7.9020     4.4480     6.5470 cc         1 76J       0.219700
     15 C26          8.5320     6.5220     6.5600 ca         1 76J      -0.253200
     16 C27          8.8600     7.8630     6.8210 ca         1 76J       0.597200
     17 C4           3.5700    -0.0010     1.4420 c3         1 76J      -0.038400
     18 N6           5.5500    -0.0010     2.8830 ny         1 76J       0.016000
     19 C9           6.0420    -0.9320     6.5260 c3         1 76J      -0.013400
     20 N11          4.0750    -2.1520     7.3300 nz         1 76J       0.081400
     21 O13          5.2910    -1.5810     9.6220 o          1 76J      -0.790800
     22 O14          7.2890    -2.3520     9.0760 o          1 76J      -0.790800
     23 C18          8.4720     3.7490     4.1900 c3         1 76J       0.172800
     24 O20         10.8310     3.7350     3.5130 oh         1 76J      -0.527800
     25 O22          9.8730     1.7860     2.0810 oh         1 76J      -0.549800
     26 N23          8.3960     4.7010     5.3020 na         1 76J       0.182000
     27 N25          7.9830     5.5170     7.2830 nd         1 76J      -0.458100
     28 N28          8.6110     8.4240     8.0610 nv         1 76J      -0.461500
     29 N29          9.4150     8.5800     5.8500 nb         1 76J      -0.734000
     30 C30          9.6560     8.0540     4.6630 ca         1 76J       0.711900
     31 N31          9.3600     6.8040     4.3710 nb         1 76J      -0.692000
     32 C32          8.8090     6.0080     5.2820 ca         1 76J       0.287800
     33 H44         -0.3610     0.8920     0.4970 hc         1 76J       0.011033
     34 H46         -0.3610    -0.8770     0.5240 hc         1 76J       0.011033
     35 H45         -0.3610    -0.0150    -1.0210 hc         1 76J       0.011033
     36 H48          1.8910     0.8840    -0.5110 hc         1 76J       0.020200
     37 H47          1.8910    -0.8840    -0.5110 hc         1 76J       0.020200
     38 H50          1.6780    -0.8840     1.9530 hc         1 76J       0.023700
     39 H49          1.6800     0.8850     1.9530 hc         1 76J       0.023700
     40 H53          3.7190     0.8830     3.3950 hx         1 76J       0.077700
     41 H54          3.7200    -0.8860     3.3940 hx         1 76J       0.077700
     42 H35          5.5970     1.0000     4.7240 hx         1 76J       0.107700
     43 H55          4.5840    -1.2810     4.9850 hc         1 76J       0.024200
     44 H56          6.1740    -1.9830     4.6550 hc         1 76J       0.024200
     45 H36          5.9250    -3.0440     6.9110 hx         1 76J       0.091700
     46 H59          7.9330     0.2750     5.2690 hc         1 76J       0.066200
     47 H60          8.0000    -0.5600     3.7110 hc         1 76J       0.066200
     48 H40          7.5010     1.6310     2.5760 h1         1 76J       0.013700
     49 H42         10.1290     2.7770     5.2250 h1         1 76J       0.035700
     50 H43          9.9500     0.8390     3.9280 h1         1 76J       0.023700
     51 H63          7.5000     3.4960     6.8740 h5         1 76J       0.028800
     52 H51          3.9320     0.8830     0.9300 hc         1 76J       0.036200
     53 H52          3.9300    -0.8860     0.9310 hc         1 76J       0.036200
     54 H34          5.8830    -0.8570     2.4880 hn         1 76J       0.252800
     55 H33          5.8830     0.7700     2.3390 hn         1 76J       0.252800
     56 H57          7.1200    -0.8620     6.6080 hc         1 76J       0.065700
     57 H58          5.5910    -0.0230     6.9030 hc         1 76J       0.065700
     58 H38          3.7440    -2.6740     8.1170 hn         1 76J       0.213467
     59 H39          3.7250    -1.2160     7.3800 hn         1 76J       0.213467
     60 H37          3.7560    -2.5830     6.4860 hn         1 76J       0.213467
     61 H41          8.3310     4.2520     3.2400 h2         1 76J       0.075700
     62 H61         11.6700     3.5800     3.9160 ho         1 76J       0.403000
     63 H62         10.5140     1.1210     1.8910 ho         1 76J       0.404000
     64 H64          8.8420     9.3830     8.2320 hn         1 76J       0.280800
     65 H65          8.2030     7.8700     8.7880 hn         1 76J       0.280800
     66 H66         10.1100     8.6740     3.9000 h5         1 76J       0.001100
@<TRIPOS>BOND
     1     1     2 1   
     2     1    33 1   
     3     1    34 1   
     4     1    35 1   
     5     2     3 1   
     6     2    36 1   
     7     2    37 1   
     8     3    17 1   
     9     3    38 1   
    10     3    39 1   
    11     4    17 1   
    12     4    18 1   
    13     4    40 1   
    14     4    41 1   
    15     5     6 1   
    16     5     9 1   
    17     5    18 1   
    18     5    42 1   
    19     6    19 1   
    20     6    43 1   
    21     6    44 1   
    22     7     8 1   
    23     7    19 1   
    24     7    20 1   
    25     7    45 1   
    26     8    21 1   
    27     8    22 1   
    28     9    10 1   
    29     9    46 1   
    30     9    47 1   
    31    10    11 1   
    32    10    13 1   
    33    10    48 1   
    34    11    23 1   
    35    12    13 1   
    36    12    23 1   
    37    12    24 1   
    38    12    49 1   
    39    13    25 1   
    40    13    50 1   
    41    14    26 1   
    42    14    27 2   
    43    14    51 1   
    44    15    16 ar  
    45    15    27 1   
    46    15    32 ar  
    47    16    28 1   
    48    16    29 ar  
    49    17    52 1   
    50    17    53 1   
    51    18    54 1   
    52    18    55 1   
    53    19    56 1   
    54    19    57 1   
    55    20    58 1   
    56    20    59 1   
    57    20    60 1   
    58    23    26 1   
    59    23    61 1   
    60    24    62 1   
    61    25    63 1   
    62    26    32 1   
    63    28    64 1   
    64    28    65 1   
    65    29    30 ar  
    66    30    31 ar  
    67    30    66 1   
    68    31    32 ar  
@<TRIPOS>SUBSTRUCTURE
     1 76J         1 TEMP              0 ****  ****    0 ROOT
