@<TRIPOS>MOLECULE
molecule
   66    68     1     0     0
SMALL
bcc


@<TRIPOS>ATOM
      1 C1           0.0000     0.0000     0.0000 c3         1 76J      -0.091100
      2 C2           1.5300     0.0000     0.0000 c3         1 76J      -0.081400
      3 C3           2.0400     0.0000     1.4420 c3         1 76J      -0.075400
      4 C5           4.0810    -0.0010     2.8840 c3         1 76J       0.092800
      5 C7           6.0400     0.1260     4.2620 c3         1 76J       0.110500
      6 C8           5.6530    -1.1230     5.0580 c3         1 76J      -0.128400
      7 C10          5.5440    -2.1270     7.3430 c3         1 76J      -0.019500
      8 C12          6.0320    -2.0000     8.7640 c          1 76J       0.861600
      9 C15          7.5630     0.2710     4.2510 c3         1 76J      -0.111400
     10 C16          7.9450     1.5830     3.5630 c3         1 76J       0.112100
     11 O17          7.4960     2.6980     4.3530 os         1 76J      -0.434600
     12 C19          9.8250     2.9940     4.2080 c3         1 76J       0.100100
     13 C21          9.4780     1.6890     3.4500 c3         1 76J       0.091100
     14 C24          7.9020     4.4480     6.5470 cc         1 76J       0.401700
     15 C26          8.5320     6.5220     6.5600 ca         1 76J      -0.217200
     16 C27          8.8600     7.8630     6.8210 ca         1 76J       0.798200
     17 C4           3.5700    -0.0010     1.4420 c3         1 76J      -0.112400
     18 N6           5.5500    -0.0010     2.8830 ny         1 76J      -0.736000
     19 C9           6.0420    -0.9320     6.5260 c3         1 76J      -0.083400
     20 N11          4.0750    -2.1520     7.3300 nz         1 76J      -0.793600
     21 O13          5.2910    -1.5810     9.6220 o          1 76J      -0.749300
     22 O14          7.2890    -2.3520     9.0760 o          1 76J      -0.749300
     23 C18          8.4720     3.7490     4.1900 c3         1 76J       0.270800
     24 O20         10.8310     3.7350     3.5130 oh         1 76J      -0.546800
     25 O22          9.8730     1.7860     2.0810 oh         1 76J      -0.569800
     26 N23          8.3960     4.7010     5.3020 na         1 76J      -0.266000
     27 N25          7.9830     5.5170     7.2830 nd         1 76J      -0.557100
     28 N28          8.6110     8.4240     8.0610 nv         1 76J      -0.972500
     29 N29          9.4150     8.5800     5.8500 nb         1 76J      -0.826000
     30 C30          9.6560     8.0540     4.6630 ca         1 76J       0.758900
     31 N31          9.3600     6.8040     4.3710 nb         1 76J      -0.799000
     32 C32          8.8090     6.0080     5.2820 ca         1 76J       0.486800
     33 H44         -0.3610     0.8920     0.4970 hc         1 76J       0.046033
     34 H46         -0.3610    -0.8770     0.5240 hc         1 76J       0.046033
     35 H45         -0.3610    -0.0150    -1.0210 hc         1 76J       0.046033
     36 H48          1.8910     0.8840    -0.5110 hc         1 76J       0.050700
     37 H47          1.8910    -0.8840    -0.5110 hc         1 76J       0.050700
     38 H50          1.6780    -0.8840     1.9530 hc         1 76J       0.053200
     39 H49          1.6800     0.8850     1.9530 hc         1 76J       0.053200
     40 H53          3.7190     0.8830     3.3950 hx         1 76J       0.099700
     41 H54          3.7200    -0.8860     3.3940 hx         1 76J       0.099700
     42 H35          5.5970     1.0000     4.7240 hx         1 76J       0.130700
     43 H55          4.5840    -1.2810     4.9850 hc         1 76J       0.050200
     44 H56          6.1740    -1.9830     4.6550 hc         1 76J       0.050200
     45 H36          5.9250    -3.0440     6.9110 hx         1 76J       0.109700
     46 H59          7.9330     0.2750     5.2690 hc         1 76J       0.095700
     47 H60          8.0000    -0.5600     3.7110 hc         1 76J       0.095700
     48 H40          7.5010     1.6310     2.5760 h1         1 76J       0.044700
     49 H42         10.1290     2.7770     5.2250 h1         1 76J       0.073700
     50 H43          9.9500     0.8390     3.9280 h1         1 76J       0.058700
     51 H63          7.5000     3.4960     6.8740 h5         1 76J       0.074800
     52 H51          3.9320     0.8830     0.9300 hc         1 76J       0.067200
     53 H52          3.9300    -0.8860     0.9310 hc         1 76J       0.067200
     54 H34          5.8830    -0.8570     2.4880 hn         1 76J       0.454300
     55 H33          5.8830     0.7700     2.3390 hn         1 76J       0.454300
     56 H57          7.1200    -0.8620     6.6080 hc         1 76J       0.097200
     57 H58          5.5910    -0.0230     6.9030 hc         1 76J       0.097200
     58 H38          3.7440    -2.6740     8.1170 hn         1 76J       0.442467
     59 H39          3.7250    -1.2160     7.3800 hn         1 76J       0.442467
     60 H37          3.7560    -2.5830     6.4860 hn         1 76J       0.442467
     61 H41          8.3310     4.2520     3.2400 h2         1 76J       0.120700
     62 H61         11.6700     3.5800     3.9160 ho         1 76J       0.420000
     63 H62         10.5140     1.1210     1.8910 ho         1 76J       0.419000
     64 H64          8.8420     9.3830     8.2320 hn         1 76J       0.456300
     65 H65          8.2030     7.8700     8.7880 hn         1 76J       0.456300
     66 H66         10.1100     8.6740     3.9000 h5         1 76J       0.070100
@<TRIPOS>BOND
     1     1     2 1
     2     2     3 1
     3     3    17 1
     4    17     4 1
     5    25    13 1
     6     4    18 1
     7    13    10 1
     8    13    12 1
     9     9    10 1
    10     9     5 1
    11    18     5 1
    12    10    11 1
    13    12    24 1
    14    12    23 1
    15     5     6 1
    16    27    14 2
    17    27    15 1
    18    28    16 1
    19    14    26 1
    20    15    16 ar
    21    15    32 ar
    22    16    29 ar
    23    26    32 1
    24    26    23 1
    25    32    31 ar
    26    29    30 ar
    27    11    23 1
    28    31    30 ar
    29     6    19 1
    30    19     7 1
    31     7    20 1
    32     7     8 1
    33    21     8 1
    34     8    22 1
    35     1    33 1
    36     1    34 1
    37     1    35 1
    38     2    36 1
    39     2    37 1
    40     3    38 1
    41     3    39 1
    42     4    40 1
    43     4    41 1
    44     5    42 1
    45     6    43 1
    46     6    44 1
    47     7    45 1
    48     9    46 1
    49     9    47 1
    50    10    48 1
    51    12    49 1
    52    13    50 1
    53    14    51 1
    54    17    52 1
    55    17    53 1
    56    18    54 1
    57    18    55 1
    58    19    56 1
    59    19    57 1
    60    20    58 1
    61    20    59 1
    62    20    60 1
    63    23    61 1
    64    24    62 1
    65    25    63 1
    66    28    64 1
    67    28    65 1
    68    30    66 1
@<TRIPOS>SUBSTRUCTURE
     1 76J         1 TEMP              0 ****  ****    0 ROOT
