@<TRIPOS>MOLECULE
molecule
   61    63     1     0     0
SMALL
bcc


@<TRIPOS>ATOM
      1 C2           0.0000     0.0000     0.0000 ca         1 76K       0.798200
      2 C6           2.0680     0.0000    -1.2390 ca         1 76K       0.480800
      3 C8           3.5350     0.0000     0.4070 cc         1 76K       0.406700
      4 C10          1.4050     0.0000     0.0000 ca         1 76K      -0.215200
      5 C11          4.5050     0.0000    -1.9220 c3         1 76K       0.266800
      6 C13          6.7910    -0.0150    -2.1450 c3         1 76K       0.115100
      7 C14          8.1100    -0.0320    -1.3690 c3         1 76K      -0.108400
      8 C15          8.5110    -1.4790    -1.0760 c3         1 76K       0.110500
      9 C16          9.7620    -1.4920    -0.1960 c3         1 76K      -0.128400
     10 C25          9.2080    -4.3460    -3.3930 c3         1 76K      -0.114400
     11 C26          9.4690    -5.8270    -3.1110 c3         1 76K       0.155400
     12 C28          6.3870     1.4370    -2.4950 c3         1 76K       0.095100
     13 N1          -0.7070     0.0010     1.1890 nv         1 76K      -0.970500
     14 N3          -0.6330     0.0050    -1.1680 nb         1 76K      -0.825000
     15 C4           0.0340     0.0050    -2.3080 ca         1 76K       0.758900
     16 N5           1.3490    -0.0000    -2.3570 nb         1 76K      -0.804000
     17 N7           3.4100    -0.0010    -0.9500 na         1 76K      -0.270000
     18 N9           2.3590     0.0000     0.9630 nd         1 76K      -0.555100
     19 O12          5.7140    -0.5080    -1.3160 os         1 76K      -0.426600
     20 C17          9.4270    -0.9020     1.1750 c3         1 76K      -0.084400
     21 C18         10.6930    -0.8480     2.0310 c3         1 76K      -0.017500
     22 N19         11.6540     0.0870     1.4280 nz         1 76K      -0.793600
     23 C20         10.3420    -0.3820     3.4200 c          1 76K       0.860600
     24 O21          9.8200    -1.2440     4.3060 o          1 76K      -0.748300
     25 O22         10.5310     0.7690     3.7370 o          1 76K      -0.748300
     26 N23          8.7940    -2.1750    -2.3390 ny         1 76K      -0.735000
     27 O27          9.6220    -6.5270    -4.3490 oh         1 76K      -0.594800
     28 O29          6.7610     1.7510    -3.8380 oh         1 76K      -0.575800
     29 C30          4.8500     1.4450    -2.3450 c3         1 76K       0.092100
     30 O31          4.2260     1.7640    -3.5910 oh         1 76K      -0.553800
     31 H46          4.4750     0.0000     0.9450 h5         1 76K       0.079800
     32 H32          4.2450    -0.5920    -2.7910 h2         1 76K       0.113700
     33 H33          6.8710    -0.6090    -3.0470 h1         1 76K       0.050700
     34 H47          8.8830     0.4440    -1.9610 hc         1 76K       0.089200
     35 H48          7.9870     0.5050    -0.4370 hc         1 76K       0.089200
     36 H34          7.7010    -1.9810    -0.5610 hx         1 76K       0.141700
     37 H49         10.1070    -2.5120    -0.0750 hc         1 76K       0.049700
     38 H50         10.5390    -0.9000    -0.6640 hc         1 76K       0.049700
     39 H54          8.2090    -4.0130    -1.5200 hx         1 76K       0.107700
     40 H53          9.9490    -3.6990    -1.4820 hx         1 76K       0.107700
     41 H55          8.3030    -4.2440    -3.9800 hc         1 76K       0.078200
     42 H56         10.0440    -3.9300    -3.9430 hc         1 76K       0.078200
     43 H57         10.3740    -5.9290    -2.5240 h1         1 76K       0.035200
     44 H58          8.6330    -6.2430    -2.5620 h1         1 76K       0.035200
     45 H41          6.8380     2.1330    -1.7970 h1         1 76K       0.056700
     46 H43         -0.2190     0.0160     2.0620 hn         1 76K       0.457800
     47 H44         -1.7080    -0.0130     1.1760 hn         1 76K       0.457800
     48 H45         -0.5230     0.0090    -3.2380 h5         1 76K       0.070100
     49 H52          9.0320     0.1000     1.0510 hc         1 76K       0.097700
     50 H51          8.6870    -1.5230     1.6650 hc         1 76K       0.097700
     51 H35         11.1360    -1.8360     2.0830 hx         1 76K       0.109700
     52 H36         11.1740     0.9140     1.1330 hn         1 76K       0.442467
     53 H37         12.3510     0.3300     2.1030 hn         1 76K       0.442467
     54 H38         12.0900    -0.3450     0.6380 hn         1 76K       0.442467
     55 H39          9.6010    -1.7700    -2.7700 hn         1 76K       0.452800
     56 H40          8.0080    -2.0860    -2.9520 hn         1 76K       0.452800
     57 H59          9.8320    -7.4300    -4.1750 ho         1 76K       0.433000
     58 H60          7.1350     2.6160    -3.8660 ho         1 76K       0.420000
     59 H42          4.5500     2.1450    -1.5750 h1         1 76K       0.075700
     60 H61          3.9510     2.6660    -3.5830 ho         1 76K       0.423000
     61 C24          9.0440    -3.5970    -2.0690 c3         1 76K       0.091800
@<TRIPOS>BOND
     1    25    23 1   
     2    23    24 1   
     3    23    21 1   
     4    20    21 1   
     5    20     9 1   
     6    27    11 1   
     7    21    22 1   
     8     8     9 1   
     9     8    26 1   
    10     8     7 1   
    11    10    11 1   
    12    10    61 1   
    13    26    61 1   
    14    28    12 1   
    15    30    29 1   
    16     6     7 1   
    17     6    19 1   
    18     6    12 1   
    19    19     5 1   
    20    12    29 1   
    21    29     5 1   
    22     5    17 1   
    23    17     3 1   
    24    17     2 1   
    25     3    18 2   
    26    16     2 ar  
    27    16    15 ar  
    28     2     4 ar  
    29    18     4 1   
    30     4     1 ar  
    31    15    14 ar  
    32    14     1 ar  
    33     1    13 1   
    34     3    31 1   
    35     5    32 1   
    36     6    33 1   
    37     7    34 1   
    38     7    35 1   
    39     8    36 1   
    40     9    37 1   
    41     9    38 1   
    42    61    39 1   
    43    61    40 1   
    44    10    41 1   
    45    10    42 1   
    46    11    43 1   
    47    11    44 1   
    48    12    45 1   
    49    13    46 1   
    50    13    47 1   
    51    15    48 1   
    52    20    49 1   
    53    20    50 1   
    54    21    51 1   
    55    22    52 1   
    56    22    53 1   
    57    22    54 1   
    58    26    55 1   
    59    26    56 1   
    60    27    57 1   
    61    28    58 1   
    62    29    59 1   
    63    30    60 1   
@<TRIPOS>SUBSTRUCTURE
     1 76K         1 TEMP              0 ****  ****    0 ROOT
