@<TRIPOS>MOLECULE
76K
   61    63     1     0     0
SMALL
bcc


@<TRIPOS>ATOM
      1 C2           0.0000     0.0000     0.0000 ca         1 76K       0.597200
      2 C6           2.0680     0.0000    -1.2390 ca         1 76K       0.283800
      3 C8           3.5350     0.0000     0.4070 cc         1 76K       0.225700
      4 C10          1.4050     0.0000     0.0000 ca         1 76K      -0.251200
      5 C11          4.5050     0.0000    -1.9220 c3         1 76K       0.170800
      6 C13          6.7910    -0.0150    -2.1450 c3         1 76K       0.151100
      7 C14          8.1100    -0.0320    -1.3690 c3         1 76K      -0.054400
      8 C15          8.5110    -1.4790    -1.0760 c3         1 76K      -0.052500
      9 C16          9.7620    -1.4920    -0.1960 c3         1 76K      -0.064400
     10 C25          9.2080    -4.3460    -3.3930 c3         1 76K      -0.050400
     11 C26          9.4690    -5.8270    -3.1110 c3         1 76K       0.243400
     12 C28          6.3870     1.4370    -2.4950 c3         1 76K       0.138100
     13 N1          -0.7070     0.0010     1.1890 nv         1 76K      -0.457500
     14 N3          -0.6330     0.0050    -1.1680 nb         1 76K      -0.734000
     15 C4           0.0340     0.0050    -2.3080 ca         1 76K       0.712900
     16 N5           1.3490    -0.0000    -2.3570 nb         1 76K      -0.698000
     17 N7           3.4100    -0.0010    -0.9500 na         1 76K       0.176000
     18 N9           2.3590     0.0000     0.9630 nd         1 76K      -0.457100
     19 O12          5.7140    -0.5080    -1.3160 os         1 76K      -0.411600
     20 C17          9.4270    -0.9020     1.1750 c3         1 76K      -0.016400
     21 C18         10.6930    -0.8480     2.0310 c3         1 76K      -0.203500
     22 N19         11.6540     0.0870     1.4280 nz         1 76K       0.082400
     23 C20         10.3420    -0.3820     3.4200 c          1 76K       0.944600
     24 O21          9.8200    -1.2440     4.3060 o          1 76K      -0.790300
     25 O22         10.5310     0.7690     3.7370 o          1 76K      -0.790300
     26 N23          8.7940    -2.1750    -2.3390 ny         1 76K       0.019000
     27 O27          9.6220    -6.5270    -4.3490 oh         1 76K      -0.579800
     28 O29          6.7610     1.7510    -3.8380 oh         1 76K      -0.555800
     29 C30          4.8500     1.4450    -2.3450 c3         1 76K       0.126100
     30 O31          4.2260     1.7640    -3.5910 oh         1 76K      -0.534800
     31 H46          4.4750     0.0000     0.9450 h5         1 76K       0.032800
     32 H32          4.2450    -0.5920    -2.7910 h2         1 76K       0.070700
     33 H33          6.8710    -0.6090    -3.0470 h1         1 76K       0.019700
     34 H47          8.8830     0.4440    -1.9610 hc         1 76K       0.058700
     35 H48          7.9870     0.5050    -0.4370 hc         1 76K       0.058700
     36 H34          7.7010    -1.9810    -0.5610 hx         1 76K       0.117700
     37 H49         10.1070    -2.5120    -0.0750 hc         1 76K       0.023700
     38 H50         10.5390    -0.9000    -0.6640 hc         1 76K       0.023700
     39 H54          8.2090    -4.0130    -1.5200 hx         1 76K       0.084200
     40 H53          9.9490    -3.6990    -1.4820 hx         1 76K       0.084200
     41 H55          8.3030    -4.2440    -3.9800 hc         1 76K       0.042700
     42 H56         10.0440    -3.9300    -3.9430 hc         1 76K       0.042700
     43 H57         10.3740    -5.9290    -2.5240 h1         1 76K      -0.004300
     44 H58          8.6330    -6.2430    -2.5620 h1         1 76K      -0.004300
     45 H41          6.8380     2.1330    -1.7970 h1         1 76K       0.022700
     46 H43         -0.2190     0.0160     2.0620 hn         1 76K       0.281300
     47 H44         -1.7080    -0.0130     1.1760 hn         1 76K       0.281300
     48 H45         -0.5230     0.0090    -3.2380 h5         1 76K       0.001100
     49 H52          9.0320     0.1000     1.0510 hc         1 76K       0.067200
     50 H51          8.6870    -1.5230     1.6650 hc         1 76K       0.067200
     51 H35         11.1360    -1.8360     2.0830 hx         1 76K       0.090700
     52 H36         11.1740     0.9140     1.1330 hn         1 76K       0.213467
     53 H37         12.3510     0.3300     2.1030 hn         1 76K       0.213467
     54 H38         12.0900    -0.3450     0.6380 hn         1 76K       0.213467
     55 H39          9.6010    -1.7700    -2.7700 hn         1 76K       0.250300
     56 H40          8.0080    -2.0860    -2.9520 hn         1 76K       0.250300
     57 H59          9.8320    -7.4300    -4.1750 ho         1 76K       0.419000
     58 H60          7.1350     2.6160    -3.8660 ho         1 76K       0.405000
     59 H42          4.5500     2.1450    -1.5750 h1         1 76K       0.036700
     60 H61          3.9510     2.6660    -3.5830 ho         1 76K       0.406000
     61 C24          9.0440    -3.5970    -2.0690 c3         1 76K      -0.039200
@<TRIPOS>BOND
     1     1     4 ar  
     2     1    13 1   
     3     1    14 ar  
     4     2     4 ar  
     5     2    16 ar  
     6     2    17 1   
     7     3    17 1   
     8     3    18 2   
     9     3    31 1   
    10     4    18 1   
    11     5    17 1   
    12     5    19 1   
    13     5    29 1   
    14     5    32 1   
    15     6     7 1   
    16     6    12 1   
    17     6    19 1   
    18     6    33 1   
    19     7     8 1   
    20     7    34 1   
    21     7    35 1   
    22     8     9 1   
    23     8    26 1   
    24     8    36 1   
    25     9    20 1   
    26     9    37 1   
    27     9    38 1   
    28    10    11 1   
    29    10    41 1   
    30    10    42 1   
    31    10    61 1   
    32    11    27 1   
    33    11    43 1   
    34    11    44 1   
    35    12    28 1   
    36    12    29 1   
    37    12    45 1   
    38    13    46 1   
    39    13    47 1   
    40    14    15 ar  
    41    15    16 ar  
    42    15    48 1   
    43    20    21 1   
    44    20    49 1   
    45    20    50 1   
    46    21    22 1   
    47    21    23 1   
    48    21    51 1   
    49    22    52 1   
    50    22    53 1   
    51    22    54 1   
    52    23    24 1   
    53    23    25 1   
    54    26    55 1   
    55    26    56 1   
    56    26    61 1   
    57    27    57 1   
    58    28    58 1   
    59    29    30 1   
    60    29    59 1   
    61    30    60 1   
    62    39    61 1   
    63    40    61 1   
@<TRIPOS>SUBSTRUCTURE
     1 76K         1 TEMP              0 ****  ****    0 ROOT
