@<TRIPOS>MOLECULE
76L
   61    63     1     0     0
SMALL
bcc


@<TRIPOS>ATOM
      1 C1           0.0000     0.0000     0.0000 c3         1 76L      -0.024100
      2 C2           1.5300     0.0000     0.0000 c3         1 76L       0.180100
      3 C6           3.9980    -2.5070    -1.3020 c3         1 76L      -0.052500
      4 C7           3.6080    -2.5720    -2.7800 c3         1 76L      -0.064400
      5 C8           3.9860    -3.9420    -3.3480 c3         1 76L      -0.014400
      6 C11          3.9180    -5.3670    -5.3750 c          1 76L       0.942600
      7 C14          5.5210    -2.5700    -1.1730 c3         1 76L      -0.060400
      8 C15          5.9060    -2.6310     0.3060 c3         1 76L       0.150100
      9 C23          5.8670    -6.6480     1.2930 cc         1 76L       0.223700
     10 C25          6.5170    -7.6990     3.0750 ca         1 76L      -0.242200
     11 C26          6.8500    -8.5970     4.1030 ca         1 76L       0.596200
     12 C31          6.7780    -6.3330     3.2750 ca         1 76L       0.280800
     13 O3           2.0060     0.0000     1.3470 oh         1 76L      -0.601800
     14 C4           2.0390    -1.2500    -0.7210 c3         1 76L      -0.044200
     15 N5           3.5090    -1.2500    -0.7210 ny         1 76L       0.017000
     16 C9           3.6610    -3.9820    -4.8430 c3         1 76L      -0.201500
     17 N10          4.5110    -3.0180    -5.5540 nz         1 76L       0.065400
     18 O16          5.4590    -3.8720     0.8770 os         1 76L      -0.413600
     19 C17          6.4360    -4.2570     1.8680 c3         1 76L       0.174800
     20 C18          7.7880    -3.8950     1.2020 c3         1 76L       0.133100
     21 O19          8.7960    -3.6650     2.1880 oh         1 76L      -0.525800
     22 C20          7.4390    -2.5870     0.4520 c3         1 76L       0.131100
     23 O21          7.8360    -1.4480     1.2200 oh         1 76L      -0.545800
     24 N22          6.3620    -5.6960     2.1340 na         1 76L       0.180000
     25 N24          5.9550    -7.8210     1.8480 nd         1 76L      -0.455100
     26 N28          7.3960    -8.1120     5.2140 nb         1 76L      -0.725000
     27 C29          7.6230    -6.8190     5.3560 ca         1 76L       0.703900
     28 N30          7.3290    -5.9420     4.4210 nb         1 76L      -0.683000
     29 H45         -0.3610    -0.8820    -0.5140 hc         1 76L       0.033367
     30 H46         -0.3610    -0.0040     1.0210 hc         1 76L       0.033367
     31 H44         -0.3610     0.8870    -0.5070 hc         1 76L       0.033367
     32 H32          1.8910     0.8840    -0.5110 h1         1 76L       0.009700
     33 H35          3.5570    -3.3450    -0.7750 hx         1 76L       0.120700
     34 H50          4.1320    -1.7980    -3.3270 hc         1 76L       0.022200
     35 H51          2.5390    -2.4230    -2.8790 hc         1 76L       0.022200
     36 H52          3.4240    -4.7130    -2.8350 hc         1 76L       0.067200
     37 H53          5.0460    -4.1120    -3.2040 hc         1 76L       0.067200
     38 H54          5.8910    -3.4540    -1.6790 hc         1 76L       0.055700
     39 H55          5.9580    -1.6870    -1.6230 hc         1 76L       0.055700
     40 H40          5.4630    -1.8000     0.8420 h1         1 76L       0.020700
     41 H47          1.9950     0.8800     1.6850 ho         1 76L       0.436000
     42 H49          1.6780    -1.2500    -1.7420 hx         1 76L       0.092200
     43 H48          1.6780    -2.1340    -0.2100 hx         1 76L       0.092200
     44 H33          3.8420    -0.4790    -1.2650 hn         1 76L       0.253300
     45 H36          2.6190    -3.7250    -4.9930 hx         1 76L       0.090700
     46 H37          4.7890    -3.4040    -6.4340 hn         1 76L       0.215467
     47 H39          3.9990    -2.1710    -5.7080 hn         1 76L       0.215467
     48 H41          6.2970    -3.6870     2.7780 h2         1 76L       0.077700
     49 H42          8.0900    -4.6670     0.5050 h1         1 76L       0.032700
     50 H56          9.6340    -3.9340     1.8490 ho         1 76L       0.402000
     51 H43          7.9100    -2.5760    -0.5240 h1         1 76L       0.015700
     52 H57          8.4560    -0.9370     0.7270 ho         1 76L       0.400000
     53 H60          7.1500   -10.6110     4.4950 hn         1 76L       0.280300
     54 H59          5.8660   -10.2730     3.3810 hn         1 76L       0.280300
     55 H61          8.0700    -6.4680     6.2780 h5         1 76L       0.001100
     56 H34          3.8420    -1.1650     0.2180 hn         1 76L       0.253300
     57 H38          5.3240    -2.8210    -5.0050 hn         1 76L       0.215467
     58 O12          4.9410    -5.6050    -5.9740 o          1 76L      -0.786800
     59 N27          6.6160    -9.9530     3.9620 nv         1 76L      -0.479500
     60 O13          3.0100    -6.3380    -5.1870 o          1 76L      -0.786800
     61 H58          5.4600    -6.4550     0.3080 h5         1 76L       0.029800
@<TRIPOS>BOND
     1     1     2 1   
     2     1    29 1   
     3     1    30 1   
     4     1    31 1   
     5     2    13 1   
     6     2    14 1   
     7     2    32 1   
     8     3     4 1   
     9     3     7 1   
    10     3    15 1   
    11     3    33 1   
    12     4     5 1   
    13     4    34 1   
    14     4    35 1   
    15     5    16 1   
    16     5    36 1   
    17     5    37 1   
    18     6    16 1   
    19     6    58 1   
    20     6    60 1   
    21     7     8 1   
    22     7    38 1   
    23     7    39 1   
    24     8    18 1   
    25     8    22 1   
    26     8    40 1   
    27     9    24 1   
    28     9    25 2   
    29     9    61 1   
    30    10    11 ar  
    31    10    12 ar  
    32    10    25 1   
    33    11    26 ar  
    34    11    59 1   
    35    12    24 1   
    36    12    28 ar  
    37    13    41 1   
    38    14    15 1   
    39    14    42 1   
    40    14    43 1   
    41    15    44 1   
    42    15    56 1   
    43    16    17 1   
    44    16    45 1   
    45    17    46 1   
    46    17    47 1   
    47    17    57 1   
    48    18    19 1   
    49    19    20 1   
    50    19    24 1   
    51    19    48 1   
    52    20    21 1   
    53    20    22 1   
    54    20    49 1   
    55    21    50 1   
    56    22    23 1   
    57    22    51 1   
    58    23    52 1   
    59    26    27 ar  
    60    27    28 ar  
    61    27    55 1   
    62    53    59 1   
    63    54    59 1   
@<TRIPOS>SUBSTRUCTURE
     1 76L         1 TEMP              0 ****  ****    0 ROOT
