@<TRIPOS>MOLECULE
molecule
   61    63     1     0     0
SMALL
bcc


@<TRIPOS>ATOM
      1 C1           0.0000     0.0000     0.0000 c3         1 76L      -0.119100
      2 C2           1.5300     0.0000     0.0000 c3         1 76L       0.119100
      3 C6           3.9980    -2.5070    -1.3020 c3         1 76L       0.110500
      4 C7           3.6080    -2.5720    -2.7800 c3         1 76L      -0.129400
      5 C8           3.9860    -3.9420    -3.3480 c3         1 76L      -0.083400
      6 C11          3.9180    -5.3670    -5.3750 c          1 76L       0.860600
      7 C14          5.5210    -2.5700    -1.1730 c3         1 76L      -0.115400
      8 C15          5.9060    -2.6310     0.3060 c3         1 76L       0.114100
      9 C23          5.8670    -6.6480     1.2930 cc         1 76L       0.404700
     10 C25          6.5170    -7.6990     3.0750 ca         1 76L      -0.207200
     11 C26          6.8500    -8.5970     4.1030 ca         1 76L       0.795200
     12 C31          6.7780    -6.3330     3.2750 ca         1 76L       0.480800
     13 O3           2.0060     0.0000     1.3470 oh         1 76L      -0.617800
     14 C4           2.0390    -1.2500    -0.7210 c3         1 76L       0.101800
     15 N5           3.5090    -1.2500    -0.7210 ny         1 76L      -0.735000
     16 C9           3.6610    -3.9820    -4.8430 c3         1 76L      -0.017500
     17 N10          4.5110    -3.0180    -5.5540 nz         1 76L      -0.798600
     18 O16          5.4590    -3.8720     0.8770 os         1 76L      -0.428600
     19 C17          6.4360    -4.2570     1.8680 c3         1 76L       0.272800
     20 C18          7.7880    -3.8950     1.2020 c3         1 76L       0.100100
     21 O19          8.7960    -3.6650     2.1880 oh         1 76L      -0.544800
     22 C20          7.4390    -2.5870     0.4520 c3         1 76L       0.089100
     23 O21          7.8360    -1.4480     1.2200 oh         1 76L      -0.565800
     24 N22          6.3620    -5.6960     2.1340 na         1 76L      -0.268000
     25 N24          5.9550    -7.8210     1.8480 nd         1 76L      -0.553100
     26 N28          7.3960    -8.1120     5.2140 nb         1 76L      -0.818000
     27 C29          7.6230    -6.8190     5.3560 ca         1 76L       0.751900
     28 N30          7.3290    -5.9420     4.4210 nb         1 76L      -0.792000
     29 H45         -0.3610    -0.8820    -0.5140 hc         1 76L       0.069700
     30 H46         -0.3610    -0.0040     1.0210 hc         1 76L       0.069700
     31 H44         -0.3610     0.8870    -0.5070 hc         1 76L       0.069700
     32 H32          1.8910     0.8840    -0.5110 h1         1 76L       0.043700
     33 H35          3.5570    -3.3450    -0.7750 hx         1 76L       0.144700
     34 H50          4.1320    -1.7980    -3.3270 hc         1 76L       0.048700
     35 H51          2.5390    -2.4230    -2.8790 hc         1 76L       0.048700
     36 H52          3.4240    -4.7130    -2.8350 hc         1 76L       0.098200
     37 H53          5.0460    -4.1120    -3.2040 hc         1 76L       0.098200
     38 H54          5.8910    -3.4540    -1.6790 hc         1 76L       0.085200
     39 H55          5.9580    -1.6870    -1.6230 hc         1 76L       0.085200
     40 H40          5.4630    -1.8000     0.8420 h1         1 76L       0.051700
     41 H47          1.9950     0.8800     1.6850 ho         1 76L       0.444000
     42 H49          1.6780    -1.2500    -1.7420 hx         1 76L       0.116200
     43 H48          1.6780    -2.1340    -0.2100 hx         1 76L       0.116200
     44 H33          3.8420    -0.4790    -1.2650 hn         1 76L       0.455300
     45 H36          2.6190    -3.7250    -4.9930 hx         1 76L       0.109700
     46 H37          4.7890    -3.4040    -6.4340 hn         1 76L       0.442133
     47 H39          3.9990    -2.1710    -5.7080 hn         1 76L       0.442133
     48 H41          6.2970    -3.6870     2.7780 h2         1 76L       0.122700
     49 H42          8.0900    -4.6670     0.5050 h1         1 76L       0.070700
     50 H56          9.6340    -3.9340     1.8490 ho         1 76L       0.418000
     51 H43          7.9100    -2.5760    -0.5240 h1         1 76L       0.049700
     52 H57          8.4560    -0.9370     0.7270 ho         1 76L       0.416000
     53 H60          7.1500   -10.6110     4.4950 hn         1 76L       0.455300
     54 H59          5.8660   -10.2730     3.3810 hn         1 76L       0.455300
     55 H61          8.0700    -6.4680     6.2780 h5         1 76L       0.070100
     56 H34          3.8420    -1.1650     0.2180 hn         1 76L       0.455300
     57 H38          5.3240    -2.8210    -5.0050 hn         1 76L       0.442133
     58 O12          4.9410    -5.6050    -5.9740 o          1 76L      -0.747300
     59 N27          6.6160    -9.9530     3.9620 nv         1 76L      -0.984500
     60 O13          3.0100    -6.3380    -5.1870 o          1 76L      -0.747300
     61 H58          5.4600    -6.4550     0.3080 h5         1 76L       0.076800
@<TRIPOS>BOND
     1    58     6 1   
     2     6    60 1   
     3     6    16 1   
     4    13     2 1   
     5     5    16 1   
     6     5     4 1   
     7    16    17 1   
     8     2    14 1   
     9     2     1 1   
    10     3     4 1   
    11     3    15 1   
    12     3     7 1   
    13    15    14 1   
    14    23    22 1   
    15    21    20 1   
    16     8     7 1   
    17     8    18 1   
    18     8    22 1   
    19    18    19 1   
    20    22    20 1   
    21    20    19 1   
    22    19    24 1   
    23    24     9 1   
    24    24    12 1   
    25     9    25 2   
    26    28    12 ar  
    27    28    27 ar  
    28    12    10 ar  
    29    25    10 1   
    30    27    26 ar  
    31    10    11 ar  
    32    26    11 ar  
    33    11    59 1   
    34     1    29 1   
    35     1    30 1   
    36     1    31 1   
    37     2    32 1   
    38     3    33 1   
    39     4    34 1   
    40     4    35 1   
    41     5    36 1   
    42     5    37 1   
    43     7    38 1   
    44     7    39 1   
    45     8    40 1   
    46     9    61 1   
    47    13    41 1   
    48    14    42 1   
    49    14    43 1   
    50    15    44 1   
    51    16    45 1   
    52    17    46 1   
    53    17    47 1   
    54    19    48 1   
    55    20    49 1   
    56    21    50 1   
    57    22    51 1   
    58    23    52 1   
    59    59    53 1   
    60    59    54 1   
    61    27    55 1   
    62    15    56 1   
    63    17    57 1   
@<TRIPOS>SUBSTRUCTURE
     1 76L         1 TEMP              0 ****  ****    0 ROOT
