@<TRIPOS>MOLECULE
molecule
   63    65     1     0     0
SMALL
bcc


@<TRIPOS>ATOM
      1 C1           0.0000     0.0000     0.0000 c3         1 76M      -0.097600
      2 C2           1.5300     0.0000     0.0000 c3         1 76M      -0.106700
      3 C3           2.0400     0.0000     1.4420 c3         1 76M      -0.097600
      4 C6           4.0070    -2.4470    -1.3950 c3         1 76M       0.112500
      5 C7           3.5160    -2.5880    -2.8370 c3         1 76M      -0.129400
      6 C8           3.9280    -3.9560    -3.3840 c3         1 76M      -0.084400
      7 C11          3.6860    -5.5130    -5.2990 c          1 76M       0.860600
      8 C14          5.5360    -2.4420    -1.3740 c3         1 76M      -0.115400
      9 C15          6.0270    -2.4260     0.0760 c3         1 76M       0.119100
     10 C23          6.2330    -6.3970     1.2130 cc         1 76M       0.419700
     11 C25          7.0530    -7.3470     2.9820 ca         1 76M      -0.162200
     12 C26          7.4970    -8.1880     4.0160 ca         1 76M       0.792200
     13 C31          7.2680    -5.9650     3.1120 ca         1 76M       0.452800
     14 C4           2.0400    -1.2470    -0.7220 c3         1 76M       0.095800
     15 N5           3.5050    -1.1880    -0.8270 ny         1 76M      -0.737000
     16 C9           3.3870    -4.1210    -4.8060 c3         1 76M      -0.018500
     17 N10          4.0290    -3.1390    -5.6900 nz         1 76M      -0.793600
     18 O16          5.6760    -3.6610     0.7230 os         1 76M      -0.429600
     19 C17          6.7370    -3.9640     1.6550 c3         1 76M       0.273800
     20 C18          8.0210    -3.5740     0.8790 c3         1 76M       0.095100
     21 O19          9.0850    -3.2620     1.7810 oh         1 76M      -0.546800
     22 C20          7.5630    -2.3130     0.1080 c3         1 76M       0.087100
     23 O21          7.9630    -1.1280     0.8020 oh         1 76M      -0.571800
     24 N22          6.7450    -5.3930     1.9790 na         1 76M      -0.272000
     25 N24          6.4120    -7.5430     1.8040 nd         1 76M      -0.546100
     26 N28          8.0980    -7.6370     5.0660 nb         1 76M      -0.761000
     27 C29          8.2780    -6.3310     5.1440 ca         1 76M       0.718900
     28 N30          7.8790    -5.5060     4.1980 nb         1 76M      -0.756000
     29 H44         -0.3610    -0.8620     0.5480 hc         1 76M       0.058533
     30 H43         -0.3610     0.9050     0.4730 hc         1 76M       0.058533
     31 H45         -0.3610    -0.0430    -1.0200 hc         1 76M       0.058533
     32 H46          1.8900     0.8850    -0.5100 hc         1 76M       0.063700
     33 H49          1.3940     0.6180     2.0540 hc         1 76M       0.058533
     34 H48          2.0400    -1.0130     1.8260 hc         1 76M       0.058533
     35 H47          3.0490     0.3950     1.4690 hc         1 76M       0.058533
     36 H34          3.6410    -3.2790    -0.8060 hx         1 76M       0.141700
     37 H52          3.9570    -1.8080    -3.4460 hc         1 76M       0.050200
     38 H53          2.4370    -2.4990    -2.8610 hc         1 76M       0.050200
     39 H55          3.5220    -4.7350    -2.7500 hc         1 76M       0.096700
     40 H54          5.0090    -4.0290    -3.3980 hc         1 76M       0.096700
     41 H56          5.9010    -1.5610    -1.8890 hc         1 76M       0.087200
     42 H57          5.9060    -3.3300    -1.8710 hc         1 76M       0.087200
     43 H39          5.5860    -1.5930     0.6110 h1         1 76M       0.048700
     44 H51          1.6090    -1.2920    -1.7150 hx         1 76M       0.107200
     45 H50          1.7540    -2.1300    -0.1640 hx         1 76M       0.107200
     46 H32          3.8990    -1.0520     0.0820 hn         1 76M       0.450800
     47 H33          3.7660    -0.4270    -1.4220 hn         1 76M       0.450800
     48 H35          2.3160    -3.9600    -4.8060 hx         1 76M       0.109700
     49 H36          3.6210    -2.2380    -5.5390 hn         1 76M       0.442133
     50 H38          5.0090    -3.1010    -5.4900 hn         1 76M       0.442133
     51 H37          3.8930    -3.4100    -6.6440 hn         1 76M       0.442133
     52 H40          6.6380    -3.3640     2.5510 h2         1 76M       0.120700
     53 H41          8.3070    -4.3610     0.1910 h1         1 76M       0.071700
     54 H58          9.9120    -3.4220     1.3580 ho         1 76M       0.418000
     55 H42          7.9620    -2.3220    -0.8990 h1         1 76M       0.051700
     56 H59          8.6220    -0.6780     0.3000 ho         1 76M       0.420000
     57 H62          8.0160   -10.1360     3.5290 hn         1 76M       0.451800
     58 H61          6.4830    -9.9710     4.3210 hn         1 76M       0.451800
     59 H63          8.7730    -5.9230     6.0170 h5         1 76M       0.072100
     60 O12          4.6240    -5.7040    -6.0360 o          1 76M      -0.748300
     61 N27          7.3130    -9.5570     3.9440 nv         1 76M      -1.071500
     62 O13          2.9090    -6.5400    -4.9200 o          1 76M      -0.748300
     63 H60          5.7480    -6.2620     0.2530 h5         1 76M       0.078800
@<TRIPOS>BOND
     1    60     7 1   
     2     7    62 1   
     3     7    16 1   
     4     6    16 1   
     5     6     5 1   
     6    16    17 1   
     7     2     1 1   
     8     2    14 1   
     9     2     3 1   
    10     4     5 1   
    11     4    15 1   
    12     4     8 1   
    13    15    14 1   
    14    21    20 1   
    15    23    22 1   
    16     9     8 1   
    17     9    18 1   
    18     9    22 1   
    19    18    19 1   
    20    22    20 1   
    21    20    19 1   
    22    19    24 1   
    23    24    10 1   
    24    24    13 1   
    25    10    25 2   
    26    28    13 ar  
    27    28    27 ar  
    28    13    11 ar  
    29    25    11 1   
    30    27    26 ar  
    31    11    12 ar  
    32    26    12 ar  
    33    12    61 1   
    34     1    29 1   
    35     1    30 1   
    36     1    31 1   
    37     2    32 1   
    38     3    33 1   
    39     3    34 1   
    40     3    35 1   
    41     4    36 1   
    42     5    37 1   
    43     5    38 1   
    44     6    39 1   
    45     6    40 1   
    46     8    41 1   
    47     8    42 1   
    48     9    43 1   
    49    10    63 1   
    50    14    44 1   
    51    14    45 1   
    52    15    46 1   
    53    15    47 1   
    54    16    48 1   
    55    17    49 1   
    56    17    50 1   
    57    17    51 1   
    58    19    52 1   
    59    20    53 1   
    60    21    54 1   
    61    22    55 1   
    62    23    56 1   
    63    61    57 1   
    64    61    58 1   
    65    27    59 1   
@<TRIPOS>SUBSTRUCTURE
     1 76M         1 TEMP              0 ****  ****    0 ROOT
