@<TRIPOS>MOLECULE
molecule
   64    67     1     0     0
SMALL
bcc


@<TRIPOS>ATOM
      1 C2           0.0000     0.0000     0.0000 ca         1 76O       0.798200
      2 C6           2.0680     0.0010    -1.2400 ca         1 76O       0.488800
      3 C8           3.5340     0.0010     0.4060 cc         1 76O       0.390700
      4 C10          1.4050     0.0000     0.0000 ca         1 76O      -0.221200
      5 C11          4.5050     0.0030    -1.9230 c3         1 76O       0.274800
      6 C13          6.7890    -0.0480    -2.1470 c3         1 76O       0.111100
      7 C14          8.1070    -0.1030    -1.3740 c3         1 76O      -0.105400
      8 C15          8.5240    -1.5630    -1.1790 c3         1 76O       0.113500
      9 C16          9.9020    -1.6160    -0.5160 c3         1 76O      -0.131400
     10 C25          6.9160    -4.3500     0.7090 ca         1 76O      -0.190300
     11 C26          5.7510    -4.9030     0.2110 ca         1 76O      -0.102000
     12 C27          4.8630    -5.5290     1.0660 ca         1 76O      -0.111000
     13 C28          5.1400    -5.6040     2.4170 ca         1 76O      -0.075000
     14 C31          6.4130     1.4170    -2.4650 c3         1 76O       0.099100
     15 N1          -0.7080    -0.0010     1.1900 nv         1 76O      -0.971500
     16 N3          -0.6350     0.0050    -1.1680 nb         1 76O      -0.822000
     17 C4           0.0330     0.0110    -2.3080 ca         1 76O       0.764900
     18 N5           1.3480     0.0120    -2.3570 nb         1 76O      -0.799000
     19 N7           3.4090     0.0010    -0.9520 na         1 76O      -0.270000
     20 N9           2.3580     0.0000     0.9620 nd         1 76O      -0.556100
     21 O12          5.7050    -0.5380    -1.3290 os         1 76O      -0.487600
     22 C17         10.9490    -1.0390    -1.4710 c3         1 76O      -0.085400
     23 C18         12.3430    -1.2140    -0.8640 c3         1 76O      -0.019500
     24 N19         12.4490    -0.4100     0.3600 nz         1 76O      -0.792600
     25 C20         13.3830    -0.7580    -1.8550 c          1 76O       0.861600
     26 O21         13.7540    -1.5690    -2.8590 o          1 76O      -0.749300
     27 O22         13.8820     0.3360    -1.7470 o          1 76O      -0.749300
     28 N23          7.5420    -2.2420    -0.3230 ny         1 76O      -0.735000
     29 C29          6.3060    -5.0520     2.9160 ca         1 76O      -0.111000
     30 C30          7.1960    -4.4310     2.0610 ca         1 76O      -0.102000
     31 O32          6.7920     1.7530    -3.8000 oh         1 76O      -0.563800
     32 C33          4.8750     1.4500    -2.3140 c3         1 76O       0.090100
     33 O34          4.2590     1.8080    -3.5520 oh         1 76O      -0.549800
     34 H49          4.4750     0.0010     0.9430 h5         1 76O       0.065800
     35 H35          4.2350    -0.5650    -2.8050 h2         1 76O       0.122700
     36 H36          6.8580    -0.6240    -3.0620 h1         1 76O       0.097700
     37 H51          8.8750     0.4200    -1.9310 hc         1 76O       0.089700
     38 H50          7.9790     0.3680    -0.4070 hc         1 76O       0.089700
     39 H37          8.5680    -2.0570    -2.1420 hx         1 76O       0.125700
     40 H52         10.1520    -2.6440    -0.2840 hc         1 76O       0.051200
     41 H53          9.8860    -1.0330     0.3970 hc         1 76O       0.051200
     42 H56          8.8910    -3.7710     0.1630 hx         1 76O       0.104200
     43 H57          7.8240    -4.1230    -1.2030 hx         1 76O       0.104200
     44 H58          5.5330    -4.8450    -0.8480 ha         1 76O       0.132000
     45 H59          3.9500    -5.9620     0.6760 ha         1 76O       0.158000
     46 H60          4.4430    -6.0930     3.0870 ha         1 76O       0.160000
     47 H44          6.8760     2.0890    -1.7520 h1         1 76O       0.051700
     48 H47         -0.2180    -0.0040     2.0630 hn         1 76O       0.457300
     49 H46         -1.7080     0.0010     1.1770 hn         1 76O       0.457300
     50 H48         -0.5230     0.0150    -3.2370 h5         1 76O       0.074100
     51 H54         10.9000    -1.5620    -2.4190 hc         1 76O       0.096200
     52 H55         10.7530     0.0140    -1.6290 hc         1 76O       0.096200
     53 H38         12.5050    -2.2580    -0.6260 hx         1 76O       0.109700
     54 H39         12.0410     0.4910     0.2040 hn         1 76O       0.442467
     55 H41         13.4130    -0.3020     0.6060 hn         1 76O       0.442467
     56 H40         11.9640    -0.8710     1.1050 hn         1 76O       0.442467
     57 H43          6.6290    -2.1460    -0.7210 hn         1 76O       0.460300
     58 H42          7.5540    -1.8310     0.5890 hn         1 76O       0.460300
     59 H61          6.5240    -5.1120     3.9750 ha         1 76O       0.158000
     60 H62          8.1100    -3.9980     2.4510 ha         1 76O       0.132000
     61 H63          7.1240     2.6350    -3.8210 ho         1 76O       0.423000
     62 H45          4.5880     2.1380    -1.5280 h1         1 76O       0.069700
     63 H64          4.0420     2.7260    -3.5410 ho         1 76O       0.423000
     64 C24          7.8840    -3.6670    -0.2220 c3         1 76O       0.158100
@<TRIPOS>BOND
     1    27    25 1
     2    24    23 1
     3    25    23 1
     4    25    26 1
     5    23    22 1
     6    16    17 ar
     7    16     1 ar
     8    15     1 1
     9    22     9 1
    10    17    18 ar
    11     1     4 ar
    12    18     2 ar
    13     4     2 ar
    14     4    20 1
    15     2    19 1
    16    20     3 2
    17    19     3 1
    18    19     5 1
    19     5    21 1
    20     5    32 1
    21    21     6 1
    22     9     8 1
    23    33    32 1
    24    32    14 1
    25     8    28 1
    26     8     7 1
    27     6    14 1
    28     6     7 1
    29    14    31 1
    30    28    64 1
    31    64    10 1
    32    30    10 ar
    33    30    29 ar
    34    10    11 ar
    35    29    13 ar
    36    11    12 ar
    37    13    12 ar
    38     3    34 1
    39     5    35 1
    40     6    36 1
    41     7    37 1
    42     7    38 1
    43     8    39 1
    44     9    40 1
    45     9    41 1
    46    64    42 1
    47    64    43 1
    48    11    44 1
    49    12    45 1
    50    13    46 1
    51    14    47 1
    52    15    48 1
    53    15    49 1
    54    17    50 1
    55    22    51 1
    56    22    52 1
    57    23    53 1
    58    24    54 1
    59    24    55 1
    60    24    56 1
    61    28    57 1
    62    28    58 1
    63    29    59 1
    64    30    60 1
    65    31    61 1
    66    32    62 1
    67    33    63 1
@<TRIPOS>SUBSTRUCTURE
     1 76O         1 TEMP              0 ****  ****    0 ROOT
