@<TRIPOS>MOLECULE
molecule
   43    45     1     0     0
SMALL
bcc


@<TRIPOS>ATOM
      1 N01          0.0000     0.0000     0.0000 nb         1 76P      -0.762000
      2 C02          1.3120     0.0000     0.0000 ca         1 76P       0.746900
      3 N03          2.0320     0.0000     1.1110 nb         1 76P      -0.840000
      4 C04          1.4620     0.0020     2.3060 ca         1 76P       0.738600
      5 C05          0.0490     0.0030     2.3730 ca         1 76P      -0.317600
      6 C06         -0.6780     0.0020     1.1560 ca         1 76P       0.496600
      7 C07         -0.6390     0.0040     3.5910 ca         1 76P       0.003000
      8 C08         -2.0030     0.0060     3.5920 ca         1 76P      -0.180200
      9 C09         -2.7190     0.0030     2.3990 ca         1 76P      -0.058000
     10 C10         -2.0790     0.0020     1.1950 ca         1 76P      -0.184300
     11 O11          2.2100     0.0020     3.4330 os         1 76P      -0.423100
     12 N12         -2.7310     0.0070     4.8820 no         1 76P       0.295200
     13 C13          3.6300     0.0010     3.2690 c3         1 76P       0.141100
     14 C14          4.2800     0.7230     4.4510 c3         1 76P      -0.089900
     15 C15          5.8000     0.7210     4.2760 c3         1 76P      -0.072900
     16 C16          6.3060    -0.7220     4.2180 c3         1 76P       0.168500
     17 C17          5.6550    -1.4440     3.0370 c3         1 76P      -0.072900
     18 C18          4.1350    -1.4420     3.2120 c3         1 76P      -0.089900
     19 N19          7.7650    -0.7240     4.0500 n3         1 76P      -0.729600
     20 C20          8.4190     0.0430     5.1190 c3         1 76P       0.150100
     21 C21          8.2860    -2.0960     3.9910 c3         1 76P       0.150100
     22 O22         -2.1130     0.0070     5.9300 o          1 76P      -0.204500
     23 O23         -3.9490     0.0070     4.8920 o          1 76P      -0.204500
     24 H1           1.8290    -0.0020    -0.9520 h5         1 76P       0.065100
     25 H2          -0.0920     0.0060     4.5270 ha         1 76P       0.181000
     26 H3          -3.8020     0.0040     2.4280 ha         1 76P       0.170000
     27 H4          -2.6500     0.0000     0.2750 ha         1 76P       0.169000
     28 H5           3.8920     0.5100     2.3500 h1         1 76P       0.082700
     29 H6           3.9230     1.7450     4.4880 hc         1 76P       0.055200
     30 H7           4.0230     0.2110     5.3700 hc         1 76P       0.055200
     31 H8           6.2590     1.2290     5.1150 hc         1 76P       0.056450
     32 H9           6.0570     1.2290     3.3550 hc         1 76P       0.056450
     33 H10          6.0430    -1.2310     5.1380 h1         1 76P       0.027700
     34 H11          6.0110    -2.4660     2.9990 hc         1 76P       0.056450
     35 H12          5.9110    -0.9320     2.1170 hc         1 76P       0.056450
     36 H13          3.8790    -1.9490     4.1350 hc         1 76P       0.055200
     37 H14          3.6750    -1.9510     2.3740 hc         1 76P       0.055200
     38 H16          9.4670    -0.2270     5.1670 h1         1 76P       0.033033
     39 H17          8.3280     1.1020     4.9110 h1         1 76P       0.033033
     40 H18          7.9450    -0.1810     6.0670 h1         1 76P       0.033033
     41 H19          8.1020    -2.5100     3.0080 h1         1 76P       0.033033
     42 H20          7.7890    -2.7030     4.7380 h1         1 76P       0.033033
     43 H21          9.3520    -2.0860     4.1850 h1         1 76P       0.033033
@<TRIPOS>BOND
     1    22    12 1   
     2    23    12 1   
     3    12     8 1   
     4     9     8 ar  
     5     9    10 ar  
     6     8     7 ar  
     7    10     6 ar  
     8     7     5 ar  
     9     6     5 ar  
    10     6     1 ar  
    11     5     4 ar  
    12     1     2 ar  
    13     4    11 1   
    14     4     3 ar  
    15    11    13 1   
    16     2     3 ar  
    17    18    13 1   
    18    18    17 1   
    19    13    14 1   
    20    17    16 1   
    21    14    15 1   
    22    16    15 1   
    23    16    19 1   
    24    20    19 1   
    25    19    21 1   
    26     2    24 1   
    27     7    25 1   
    28     9    26 1   
    29    10    27 1   
    30    13    28 1   
    31    14    29 1   
    32    14    30 1   
    33    15    31 1   
    34    15    32 1   
    35    16    33 1   
    36    17    34 1   
    37    17    35 1   
    38    18    36 1   
    39    18    37 1   
    40    20    38 1   
    41    20    39 1   
    42    20    40 1   
    43    21    41 1   
    44    21    42 1   
    45    21    43 1   
@<TRIPOS>SUBSTRUCTURE
     1 76P         1 TEMP              0 ****  ****    0 ROOT
