@<TRIPOS>MOLECULE
76Q
   60    63     1     0     0
SMALL
bcc


@<TRIPOS>ATOM
      1 N01          0.0000     0.0000     0.0000 nb         1 76Q      -0.575000
      2 C02          1.3080     0.0000     0.0000 ca         1 76Q       0.427200
      3 C03          2.0440     0.0000     1.1960 cp         1 76Q      -0.152300
      4 C04          1.3740     0.0000     2.4100 ca         1 76Q      -0.027300
      5 C05         -0.0330    -0.0010     2.3870 ca         1 76Q      -0.138300
      6 C06         -0.7040    -0.0010     1.1380 ca         1 76Q       0.375600
      7 C07         -0.7760    -0.0000     3.5760 ca         1 76Q      -0.086000
      8 C08         -2.1580    -0.0010     3.5150 cp         1 76Q      -0.030000
      9 C09         -2.8130    -0.0020     2.2740 ca         1 76Q      -0.095000
     10 C10         -2.1100    -0.0000     1.1110 ca         1 76Q      -0.133300
     11 C11          3.5270    -0.0010     1.1610 cp         1 76Q      -0.024000
     12 C12          2.1300    -0.0010     3.7130 c3         1 76Q      -0.004100
     13 C13         -2.9520    -0.0020     4.7680 cp         1 76Q      -0.125300
     14 C14          4.2420    -1.0110     1.8020 ca         1 76Q      -0.103500
     15 C15          5.6210    -1.0060     1.7670 ca         1 76Q      -0.080800
     16 C16          6.2940    -0.0010     1.0960 ca         1 76Q      -0.101000
     17 C17          5.5910     1.0040     0.4580 ca         1 76Q      -0.080800
     18 C18          4.2110     1.0060     0.4810 ca         1 76Q      -0.103500
     19 C19          6.3950    -2.0980     2.4590 c3         1 76Q       0.063200
     20 C20          6.3320     2.0960    -0.2690 c3         1 76Q       0.063200
     21 C21          2.4760     1.4380     4.1020 c3         1 76Q      -0.026400
     22 C22          3.2850     1.4340     5.4010 c3         1 76Q      -0.030400
     23 C23          3.6310     2.8730     5.7900 c3         1 76Q       0.140800
     24 N24          4.4080     2.8690     7.0380 n7         1 76Q      -0.586200
     25 C25          4.7590     4.2370     7.4420 c3         1 76Q       0.179100
     26 C26         -2.3170    -0.0020     6.0090 ca         1 76Q       0.380200
     27 N27         -3.0170    -0.0030     7.1230 nb         1 76Q      -0.557000
     28 C28         -4.3370    -0.0040     7.1180 ca         1 76Q       0.355200
     29 C29         -5.0450    -0.0040     5.9240 ca         1 76Q       0.014800
     30 C30         -4.3480     0.0030     4.7220 ca         1 76Q      -0.105000
     31 O31         -6.4040    -0.0040     5.9310 oh         1 76Q      -0.490100
     32 H1           1.8360     0.0000    -0.9460 h4         1 76Q      -0.015900
     33 H2          -0.2730     0.0000     4.5350 ha         1 76Q       0.126000
     34 H3          -3.8960    -0.0020     2.2420 ha         1 76Q       0.112000
     35 H4          -2.6330    -0.0010     0.1620 ha         1 76Q       0.119000
     36 H5           3.0420    -0.5740     3.6010 hc         1 76Q       0.036700
     37 H6           1.5160    -0.4460     4.4870 hc         1 76Q       0.036700
     38 H7           3.7150    -1.7990     2.3280 ha         1 76Q       0.115000
     39 H8           7.3780     0.0010     1.0730 ha         1 76Q       0.109000
     40 H9           3.6610     1.7940    -0.0190 ha         1 76Q       0.115000
     41 H10          5.7140    -2.8790     2.7740 hc         1 76Q       0.008367
     42 H11          7.1270    -2.5110     1.7760 hc         1 76Q       0.008367
     43 H12          6.9000    -1.6890     3.3260 hc         1 76Q       0.008367
     44 H13          6.6390     1.7360    -1.2440 hc         1 76Q       0.008367
     45 H14          7.2070     2.3820     0.3020 hc         1 76Q       0.008367
     46 H15          5.6830     2.9550    -0.3900 hc         1 76Q       0.008367
     47 H16          1.5620     2.0020     4.2460 hc         1 76Q       0.021200
     48 H17          3.0620     1.8940     3.3130 hc         1 76Q       0.021200
     49 H18          2.6980     0.9790     6.1900 hc         1 76Q       0.019700
     50 H19          4.1970     0.8690     5.2570 hc         1 76Q       0.019700
     51 H20          4.2180     3.3280     5.0010 h1         1 76Q       0.007700
     52 H21          2.7190     3.4380     5.9340 h1         1 76Q       0.007700
     53 H22          3.8720     2.4340     7.7620 hn         1 76Q       0.250800
     54 H24          5.3490     4.7040     6.6630 h1         1 76Q      -0.002300
     55 H25          5.3330     4.2060     8.3610 h1         1 76Q      -0.002300
     56 H26          3.8540     4.8100     7.6010 h1         1 76Q      -0.002300
     57 H27         -1.2350    -0.0020     6.0570 h4         1 76Q      -0.011900
     58 H28         -4.8740    -0.0070     8.0580 h4         1 76Q      -0.011900
     59 H29         -4.8740     0.0030     3.7750 ha         1 76Q       0.129000
     60 H30         -6.7170     0.8580     6.1490 ho         1 76Q       0.405000
@<TRIPOS>BOND
     1     1     2 ar  
     2     1     6 ar  
     3     2     3 ar  
     4     2    32 1   
     5     3     4 ar  
     6     3    11 1   
     7     4     5 ar  
     8     4    12 1   
     9     5     6 ar  
    10     5     7 ar  
    11     6    10 ar  
    12     7     8 ar  
    13     7    33 1   
    14     8     9 ar  
    15     8    13 1   
    16     9    10 ar  
    17     9    34 1   
    18    10    35 1   
    19    11    14 ar  
    20    11    18 ar  
    21    12    21 1   
    22    12    36 1   
    23    12    37 1   
    24    13    26 ar  
    25    13    30 ar  
    26    14    15 ar  
    27    14    38 1   
    28    15    16 ar  
    29    15    19 1   
    30    16    17 ar  
    31    16    39 1   
    32    17    18 ar  
    33    17    20 1   
    34    18    40 1   
    35    19    41 1   
    36    19    42 1   
    37    19    43 1   
    38    20    44 1   
    39    20    45 1   
    40    20    46 1   
    41    21    22 1   
    42    21    47 1   
    43    21    48 1   
    44    22    23 1   
    45    22    49 1   
    46    22    50 1   
    47    23    24 1   
    48    23    51 1   
    49    23    52 1   
    50    24    25 1   
    51    24    53 1   
    52    25    54 1   
    53    25    55 1   
    54    25    56 1   
    55    26    27 ar  
    56    26    57 1   
    57    27    28 ar  
    58    28    29 ar  
    59    28    58 1   
    60    29    30 ar  
    61    29    31 1   
    62    30    59 1   
    63    31    60 1   
@<TRIPOS>SUBSTRUCTURE
     1 76Q         1 TEMP              0 ****  ****    0 ROOT
