@<TRIPOS>MOLECULE
76S
   49    52     1     0     0
SMALL
bcc


@<TRIPOS>ATOM
      1 C4           0.0000     0.0000     0.0000 ca         1 76S      -0.084000
      2 C5           1.3960     0.0000     0.0000 ca         1 76S      -0.169600
      3 C6           2.0910     0.0000     1.2150 ca         1 76S       0.176100
      4 C7          -2.1760     0.0070     1.2050 cp         1 76S      -0.041000
      5 C8          -2.8730     0.0150     2.4120 ca         1 76S      -0.075500
      6 C10         -4.9450     0.0070     1.2090 ca         1 76S       0.105900
      7 C20          2.7030    -0.5170    -8.1600 cc         1 76S       0.215000
      8 C22          1.9630    -0.0090    -6.1810 cc         1 76S       0.158800
      9 C24          2.9230    -1.1830    -9.4630 ca         1 76S      -0.075500
     10 C28          4.0310    -1.3350   -11.5800 ca         1 76S       0.411200
     11 C1           1.3880     0.0020     2.4180 ca         1 76S       0.067100
     12 C2           0.0070     0.0010     2.4130 ca         1 76S      -0.107000
     13 C3          -0.6910     0.0070     1.2040 cp         1 76S      -0.039000
     14 C9          -4.2530     0.0140     2.4090 ca         1 76S      -0.126000
     15 C11         -4.2560    -0.0120     0.0070 ca         1 76S      -0.126000
     16 C12         -2.8760    -0.0060     0.0010 ca         1 76S      -0.075500
     17 F13         -6.2960     0.0070     1.2110 f          1 76S      -0.126900
     18 O14          2.0630     0.0030     3.5990 oh         1 76S      -0.494100
     19 O15          3.4490    -0.0000     1.2220 oh         1 76S      -0.459100
     20 C16          2.1360    -0.0020    -1.2770 c          1 76S       0.597700
     21 N17          1.4650    -0.0040    -2.4460 ns         1 76S      -0.214900
     22 O18          3.3520    -0.0020    -1.2740 o          1 76S      -0.616100
     23 N19          1.8230    -0.9050    -7.1860 na         1 76S       0.116300
     24 N21          3.3190     0.5550    -7.7160 nd         1 76S      -0.303000
     25 N23          2.8770     0.8520    -6.5460 nd         1 76S      -0.314000
     26 C25          1.2070    -0.0070    -4.8780 c3         1 76S      -0.026700
     27 N26          3.3300    -2.4130   -11.8740 nb         1 76S      -0.578000
     28 C27          2.2000    -0.0050    -3.7120 c3         1 76S       0.053000
     29 C29          2.4430    -2.9210   -11.0390 ca         1 76S       0.411200
     30 C30          3.8580    -0.6830   -10.3770 ca         1 76S      -0.210800
     31 C31          2.2060    -2.3320    -9.8140 ca         1 76S      -0.210800
     32 H1          -0.5430     0.0000    -0.9380 ha         1 76S       0.112000
     33 H2          -2.3320     0.0200     3.3510 ha         1 76S       0.112500
     34 H3           4.7500    -0.9540   -12.2950 h4         1 76S      -0.017400
     35 H4          -0.5370     0.0050     3.3500 ha         1 76S       0.122000
     36 H5          -4.7960     0.0240     3.3460 ha         1 76S       0.120000
     37 H6          -4.8010    -0.0200    -0.9290 ha         1 76S       0.120000
     38 H7          -2.3370    -0.0160    -0.9390 ha         1 76S       0.112500
     39 H8           2.0350     0.8660     3.9770 ho         1 76S       0.410000
     40 H9           3.7610    -0.8350     1.5290 ho         1 76S       0.413000
     41 H10          0.4640     0.0230    -2.4480 hn         1 76S       0.174500
     42 H11          1.2010    -1.6890    -7.2130 hn         1 76S       0.138700
     43 H12          0.5850     0.8780    -4.8230 hc         1 76S       0.019700
     44 H13          0.5840    -0.8910    -4.8200 hc         1 76S       0.019700
     45 H14          2.8230     0.8790    -3.7690 h1         1 76S       0.040700
     46 H15          2.8230    -0.8900    -3.7670 h1         1 76S       0.040700
     47 H16          1.8920    -3.8100   -11.3210 h4         1 76S      -0.017400
     48 H17          4.4370     0.2020   -10.1420 ha         1 76S       0.120500
     49 H18          1.4760    -2.7550    -9.1340 ha         1 76S       0.120500
@<TRIPOS>BOND
     1     1     2 ar  
     2     1    13 ar  
     3     1    32 1   
     4     2     3 ar  
     5     2    20 1   
     6     3    11 ar  
     7     3    19 1   
     8     4     5 ar  
     9     4    13 1   
    10     4    16 ar  
    11     5    14 ar  
    12     5    33 1   
    13     6    14 ar  
    14     6    15 ar  
    15     6    17 1   
    16     7     9 1   
    17     7    23 1   
    18     7    24 2   
    19     8    23 1   
    20     8    25 2   
    21     8    26 1   
    22     9    30 ar  
    23     9    31 ar  
    24    10    27 ar  
    25    10    30 ar  
    26    10    34 1   
    27    11    12 ar  
    28    11    18 1   
    29    12    13 ar  
    30    12    35 1   
    31    14    36 1   
    32    15    16 ar  
    33    15    37 1   
    34    16    38 1   
    35    18    39 1   
    36    19    40 1   
    37    20    21 1   
    38    20    22 2   
    39    21    28 1   
    40    21    41 1   
    41    23    42 1   
    42    24    25 1   
    43    26    28 1   
    44    26    43 1   
    45    26    44 1   
    46    27    29 ar  
    47    28    45 1   
    48    28    46 1   
    49    29    31 ar  
    50    29    47 1   
    51    30    48 1   
    52    31    49 1   
@<TRIPOS>SUBSTRUCTURE
     1 76S         1 TEMP              0 ****  ****    0 ROOT
