@<TRIPOS>MOLECULE
molecule
   49    52     1     0     0
SMALL
bcc


@<TRIPOS>ATOM
      1 C4           0.0000     0.0000     0.0000 ca         1 76S      -0.097000
      2 C5           1.3960     0.0000     0.0000 ca         1 76S      -0.154600
      3 C6           2.0910     0.0000     1.2150 ca         1 76S       0.160100
      4 C7          -2.1760     0.0070     1.2050 cp         1 76S      -0.051000
      5 C8          -2.8730     0.0150     2.4120 ca         1 76S      -0.095000
      6 C10         -4.9450     0.0070     1.2090 ca         1 76S       0.137900
      7 C20          2.7030    -0.5170    -8.1600 cc         1 76S       0.408000
      8 C22          1.9630    -0.0090    -6.1810 cd         1 76S       0.365800
      9 C24          2.9230    -1.1830    -9.4630 ca         1 76S      -0.078500
     10 C28          4.0310    -1.3350   -11.5800 ca         1 76S       0.424200
     11 C1           1.3880     0.0020     2.4180 ca         1 76S       0.060100
     12 C2           0.0070     0.0010     2.4130 ca         1 76S      -0.121000
     13 C3          -0.6910     0.0070     1.2040 cp         1 76S      -0.040000
     14 C9          -4.2530     0.0140     2.4090 ca         1 76S      -0.163000
     15 C11         -4.2560    -0.0120     0.0070 ca         1 76S      -0.163000
     16 C12         -2.8760    -0.0060     0.0010 ca         1 76S      -0.095000
     17 F13         -6.2960     0.0070     1.2110 f          1 76S      -0.137900
     18 O14          2.0630     0.0030     3.5990 oh         1 76S      -0.514100
     19 O15          3.4490    -0.0000     1.2220 oh         1 76S      -0.482100
     20 C16          2.1360    -0.0020    -1.2770 c          1 76S       0.673700
     21 N17          1.4650    -0.0040    -2.4460 ns         1 76S      -0.594900
     22 O18          3.3520    -0.0020    -1.2740 o          1 76S      -0.571100
     23 N19          1.8230    -0.9050    -7.1860 na         1 76S      -0.425700
     24 N21          3.3190     0.5550    -7.7160 nc         1 76S      -0.330000
     25 N23          2.8770     0.8520    -6.5460 nc         1 76S      -0.344000
     26 C25          1.2070    -0.0070    -4.8780 c3         1 76S      -0.109700
     27 N26          3.3300    -2.4130   -11.8740 nb         1 76S      -0.684000
     28 C27          2.2000    -0.0050    -3.7120 c3         1 76S       0.119000
     29 C29          2.4430    -2.9210   -11.0390 ca         1 76S       0.424200
     30 C30          3.8580    -0.6830   -10.3770 ca         1 76S      -0.234800
     31 C31          2.2060    -2.3320    -9.8140 ca         1 76S      -0.234800
     32 H1          -0.5430     0.0000    -0.9380 ha         1 76S       0.132000
     33 H2          -2.3320     0.0200     3.3510 ha         1 76S       0.137000
     34 H3           4.7500    -0.9540   -12.2950 h4         1 76S       0.028600
     35 H4          -0.5370     0.0050     3.3500 ha         1 76S       0.147000
     36 H5          -4.7960     0.0240     3.3460 ha         1 76S       0.148000
     37 H6          -4.8010    -0.0200    -0.9290 ha         1 76S       0.148000
     38 H7          -2.3370    -0.0160    -0.9390 ha         1 76S       0.137000
     39 H8           2.0350     0.8660     3.9770 ho         1 76S       0.429000
     40 H9           3.7610    -0.8350     1.5290 ho         1 76S       0.435000
     41 H10          0.4640     0.0230    -2.4480 hn         1 76S       0.307500
     42 H11          1.2010    -1.6890    -7.2130 hn         1 76S       0.310700
     43 H12          0.5850     0.8780    -4.8230 hc         1 76S       0.060200
     44 H13          0.5840    -0.8910    -4.8200 hc         1 76S       0.060200
     45 H14          2.8230     0.8790    -3.7690 h1         1 76S       0.071700
     46 H15          2.8230    -0.8900    -3.7670 h1         1 76S       0.071700
     47 H16          1.8920    -3.8100   -11.3210 h4         1 76S       0.028600
     48 H17          4.4370     0.2020   -10.1420 ha         1 76S       0.147000
     49 H18          1.4760    -2.7550    -9.1340 ha         1 76S       0.147000
@<TRIPOS>BOND
     1    17     6 1   
     2    15     6 ar  
     3    15    16 ar  
     4     6    14 ar  
     5    16     4 ar  
     6    14     5 ar  
     7     4     5 ar  
     8     4    13 1   
     9    13     1 ar  
    10    13    12 ar  
    11     1     2 ar  
    12    12    11 ar  
    13    22    20 2   
    14     2    20 1   
    15     2     3 ar  
    16    26     8 1   
    17    26    28 1   
    18    25     8 2   
    19    25    24 1   
    20    20    21 1   
    21    11     3 ar  
    22    11    18 1   
    23     3    19 1   
    24    21    28 1   
    25     8    23 1   
    26    24     7 2   
    27    23     7 1   
    28     7     9 1   
    29     9    30 ar  
    30     9    31 ar  
    31    30    10 ar  
    32    31    29 ar  
    33    10    27 ar  
    34    29    27 ar  
    35     1    32 1   
    36     5    33 1   
    37    10    34 1   
    38    12    35 1   
    39    14    36 1   
    40    15    37 1   
    41    16    38 1   
    42    18    39 1   
    43    19    40 1   
    44    21    41 1   
    45    23    42 1   
    46    26    43 1   
    47    26    44 1   
    48    28    45 1   
    49    28    46 1   
    50    29    47 1   
    51    30    48 1   
    52    31    49 1   
@<TRIPOS>SUBSTRUCTURE
     1 76S         1 TEMP              0 ****  ****    0 ROOT
