@<TRIPOS>MOLECULE
76T
   59    63     1     0     0
SMALL
bcc


@<TRIPOS>ATOM
      1 C4           0.0000     0.0000     0.0000 c          1 76T       0.594700
      2 C6           3.7620     0.0000     0.0000 cp         1 76T      -0.039000
      3 C7           2.9980    -0.0010     2.2840 ca         1 76T       0.065100
      4 C8          -5.1080    -5.9030    -7.6640 ca         1 76T      -0.229900
      5 C10          4.0340     0.0000     1.3690 ca         1 76T      -0.107000
      6 C13          4.8790    -0.0060    -0.9780 cp         1 76T      -0.041000
      7 C15         -4.8370    -4.6930    -7.0140 ca         1 76T      -0.067000
      8 C20          4.6100    -0.0050    -2.3450 ca         1 76T      -0.075500
      9 C21         -3.5310    -4.2590    -6.9020 ca         1 76T       0.040600
     10 C26         -1.7170    -2.5000    -6.1240 c3         1 76T       0.248100
     11 C28         -1.6760     0.0020    -3.2960 ca         1 76T      -0.129300
     12 C1           1.3980     0.0010     0.4720 ca         1 76T      -0.168600
     13 C2           1.6770     0.0000     1.8440 ca         1 76T       0.175100
     14 C3           2.4470     0.0010    -0.4490 ca         1 76T      -0.083000
     15 N5          -5.9980    -7.7230    -8.6030 nc         1 76T      -0.632100
     16 N9          -4.6100    -7.7770    -8.7680 na         1 76T       0.407900
     17 N11         -0.2660     0.0000    -1.3210 ns         1 76T      -0.206900
     18 C12         -4.0490    -6.6630    -8.1940 ca         1 76T      -0.213200
     19 C14         -6.3320    -6.6400    -7.9610 cd         1 76T       0.427800
     20 O16         -0.9130    -0.0060     0.8040 o          1 76T      -0.626100
     21 N17         -3.1000    -2.9230    -6.3480 nu         1 76T      -0.506600
     22 C18         -2.7400    -6.2050    -8.0630 ca         1 76T      -0.088000
     23 C19          6.1990    -0.0070    -0.5300 ca         1 76T      -0.075500
     24 O22          0.6610    -0.0010     2.7440 oh         1 76T      -0.460100
     25 C23         -1.6540     0.0010    -1.7890 c3         1 76T       0.115300
     26 C25          6.9630    -0.0060    -2.8000 ca         1 76T       0.105900
     27 C27         -1.6860    -1.1950    -3.9870 ca         1 76T      -0.069000
     28 C29         -2.4890    -5.0210    -7.4320 ca         1 76T      -0.115000
     29 C30         -1.7060    -1.1950    -5.3700 ca         1 76T      -0.115300
     30 C31          5.6520    -0.0050    -3.2500 ca         1 76T      -0.126500
     31 C32          7.2340    -0.0110    -1.4420 ca         1 76T      -0.126500
     32 F33          7.9790    -0.0120    -3.6900 f          1 76T      -0.127900
     33 C34         -1.7070     1.1990    -5.3690 ca         1 76T      -0.104000
     34 C35         -1.7160     0.0020    -6.0610 ca         1 76T      -0.076000
     35 C36         -1.6930     1.1990    -3.9870 ca         1 76T      -0.079000
     36 H1           5.0600    -0.0010     1.7160 ha         1 76T       0.122000
     37 H3           3.5860    -0.0050    -2.6970 ha         1 76T       0.113500
     38 H4          -1.1770    -2.5170    -7.0630 h1         1 76T       0.007700
     39 H5          -1.2420    -3.1760    -5.4220 h1         1 76T       0.007700
     40 H6           2.2370     0.0010    -1.5120 ha         1 76T       0.115000
     41 H8           0.4850    -0.0030    -1.9830 hn         1 76T       0.179500
     42 H9          -7.3380    -6.3400    -7.6950 h4         1 76T       0.013800
     43 H10         -3.7850    -2.2820    -5.9980 hn         1 76T       0.286800
     44 H11         -1.9200    -6.7860    -8.4700 ha         1 76T       0.102000
     45 H12          6.4110    -0.0110     0.5320 ha         1 76T       0.113500
     46 H13          0.6270     0.8330     3.1810 ho         1 76T       0.412000
     47 H14         -2.1590    -0.8840    -1.4210 h1         1 76T       0.030700
     48 H15         -2.1590     0.8850    -1.4200 h1         1 76T       0.030700
     49 H17         -1.7020    -2.1330    -3.4460 ha         1 76T       0.116000
     50 H18         -1.4680    -4.6700    -7.3380 ha         1 76T       0.112000
     51 H19          5.4450    -0.0030    -4.3130 ha         1 76T       0.119500
     52 H20          8.2600    -0.0120    -1.0960 ha         1 76T       0.119500
     53 H21         -1.7170     2.1380    -5.9100 ha         1 76T       0.108000
     54 H22         -1.7270     0.0030    -7.1440 ha         1 76T       0.111000
     55 H23         -1.6860     2.1370    -3.4450 ha         1 76T       0.110000
     56 H7          -4.1080    -8.5090    -9.2290 hn         1 76T       0.151700
     57 O24          3.2700    -0.0010     3.6170 oh         1 76T      -0.493100
     58 H2          -5.6510    -4.0430    -6.7200 ha         1 76T       0.108000
     59 H16          3.5400    -0.8650     3.8820 ho         1 76T       0.410000
@<TRIPOS>BOND
     1     1    12 1   
     2     1    17 1   
     3     1    20 2   
     4     2     5 ar  
     5     2     6 1   
     6     2    14 ar  
     7     3     5 ar  
     8     3    13 ar  
     9     3    57 1   
    10     4     7 ar  
    11     4    18 ar  
    12     4    19 1   
    13     5    36 1   
    14     6     8 ar  
    15     6    23 ar  
    16     7     9 ar  
    17     7    58 1   
    18     8    30 ar  
    19     8    37 1   
    20     9    21 1   
    21     9    28 ar  
    22    10    21 1   
    23    10    29 1   
    24    10    38 1   
    25    10    39 1   
    26    11    25 1   
    27    11    27 ar  
    28    11    35 ar  
    29    12    13 ar  
    30    12    14 ar  
    31    13    24 1   
    32    14    40 1   
    33    15    16 1   
    34    15    19 2   
    35    16    18 1   
    36    16    56 1   
    37    17    25 1   
    38    17    41 1   
    39    18    22 ar  
    40    19    42 1   
    41    21    43 1   
    42    22    28 ar  
    43    22    44 1   
    44    23    31 ar  
    45    23    45 1   
    46    24    46 1   
    47    25    47 1   
    48    25    48 1   
    49    26    30 ar  
    50    26    31 ar  
    51    26    32 1   
    52    27    29 ar  
    53    27    49 1   
    54    28    50 1   
    55    29    34 ar  
    56    30    51 1   
    57    31    52 1   
    58    33    34 ar  
    59    33    35 ar  
    60    33    53 1   
    61    34    54 1   
    62    35    55 1   
    63    57    59 1   
@<TRIPOS>SUBSTRUCTURE
     1 76T         1 TEMP              0 ****  ****    0 ROOT
