@<TRIPOS>MOLECULE
molecule
   41    41     1     0     0
SMALL
bcc


@<TRIPOS>ATOM
      1 C1           0.0000     0.0000     0.0000 ca         1 76U      -0.121600
      2 C3           1.4540    -0.0000     2.3030 ca         1 76U       0.332600
      3 C4           2.2750    -0.0010     3.5660 c3         1 76U      -0.123400
      4 C2           1.3820     0.0000     0.0000 ca         1 76U       0.434200
      5 C5           0.0690    -0.0010     2.3840 ca         1 76U      -0.042200
      6 C6          -0.6760     0.0000     1.2090 ca         1 76U      -0.090300
      7 O1           0.9820    -0.1220    -4.8860 o          1 76U      -0.903500
      8 O2          -1.0720     1.3920    -4.2560 o          1 76U      -0.903500
      9 C11         -4.2680    -2.7990    -0.7760 c3         1 76U      -0.173400
     10 C12         -4.7520    -4.0990    -1.3640 c          1 76U       0.891600
     11 O           -1.2230    -1.1260    -4.1760 o          1 76U      -0.903500
     12 P           -0.3090     0.0120    -3.9330 p5         1 76U       1.168900
     13 O3           0.1580     0.0060    -2.3920 os         1 76U      -0.586200
     14 C           -0.7630     0.0070    -1.3000 c3         1 76U       0.242700
     15 N            2.0600     0.0000     1.1310 nb         1 76U      -0.715000
     16 O4          -0.5500    -0.0010     3.5940 oh         1 76U      -0.527100
     17 C7          -2.1830     0.0010     1.2510 c3         1 76U       0.198100
     18 N1          -2.6730    -1.3840     1.2650 n7         1 76U      -0.770200
     19 C8          -4.1410    -1.4230     1.3050 c3         1 76U       0.132500
     20 C9          -4.6130    -1.3120     2.7560 c3         1 76U       0.111900
     21 F1          -4.1630    -0.1050     3.3020 f          1 76U      -0.276300
     22 C10         -4.6330    -2.7430     0.7090 c3         1 76U      -0.052400
     23 O5          -5.3310    -4.8990    -0.6670 o          1 76U      -0.870300
     24 O6          -4.5410    -4.3690    -2.6620 o          1 76U      -0.870300
     25 H1           2.1290     0.9350     4.0920 hc         1 76U       0.026700
     26 H2           1.9640    -0.8240     4.1980 hc         1 76U       0.026700
     27 H3           3.3230    -0.1140     3.3150 hc         1 76U       0.026700
     28 H4           1.9160     0.0000    -0.9420 h4         1 76U       0.080100
     29 H7          -3.1920    -2.7310    -0.8870 hc         1 76U       0.062700
     30 H8          -4.7370    -1.9710    -1.2950 hc         1 76U       0.062700
     31 H9          -1.3820     0.8950    -1.3510 h1         1 76U       0.054700
     32 H10         -1.3900    -0.8740    -1.3560 h1         1 76U       0.054700
     33 H11         -0.5000     0.8600     3.9730 ho         1 76U       0.391000
     34 H12         -2.5180     0.5110     2.1460 h1         1 76U       0.045700
     35 H13         -2.5680     0.5120     0.3770 h1         1 76U       0.045700
     36 H14         -2.3040    -1.8610     2.0640 hn         1 76U       0.345800
     37 H16         -4.5400    -0.5960     0.7310 h1         1 76U       0.068700
     38 H17         -5.6950    -1.3410     2.7870 h1         1 76U       0.031200
     39 H18         -4.2130    -2.1390     3.3300 h1         1 76U       0.031200
     40 H19         -5.7080    -2.8110     0.8190 hc         1 76U       0.031200
     41 H20         -4.1640    -3.5710     1.2270 hc         1 76U       0.031200
@<TRIPOS>BOND
     1    11    12 1
     2     8    12 1
     3    12     7 1
     4    12    13 1
     5    13    14 1
     6     4    15 ar
     7     4     1 ar
     8    14     1 1
     9    15     2 ar
    10     1     6 ar
    11     2     3 1
    12     2     5 ar
    13     6     5 ar
    14     6    17 1
    15     5    16 1
    16    17    18 1
    17    18    19 1
    18    19    20 1
    19    19    22 1
    20    20    21 1
    21    22     9 1
    22     9    10 1
    23    23    10 1
    24    10    24 1
    25     3    25 1
    26     3    26 1
    27     3    27 1
    28     4    28 1
    29     9    29 1
    30     9    30 1
    31    14    31 1
    32    14    32 1
    33    16    33 1
    34    17    34 1
    35    17    35 1
    36    18    36 1
    37    19    37 1
    38    20    38 1
    39    20    39 1
    40    22    40 1
    41    22    41 1
@<TRIPOS>SUBSTRUCTURE
     1 76U         1 TEMP              0 ****  ****    0 ROOT
