@<TRIPOS>MOLECULE
76U
   41    41     1     0     0
SMALL
bcc


@<TRIPOS>ATOM
      1 C1           0.0000     0.0000     0.0000 ca         1 76U      -0.109600
      2 C3           1.4540    -0.0000     2.3030 ca         1 76U       0.254600
      3 C4           2.2750    -0.0010     3.5660 c3         1 76U      -0.017400
      4 C2           1.3820     0.0000     0.0000 ca         1 76U       0.400200
      5 C5           0.0690    -0.0010     2.3840 ca         1 76U      -0.019200
      6 C6          -0.6760     0.0000     1.2090 ca         1 76U      -0.119300
      7 O1           0.9820    -0.1220    -4.8860 o          1 76U      -0.747167
      8 O2          -1.0720     1.3920    -4.2560 o          1 76U      -0.747167
      9 C11         -4.2680    -2.7990    -0.7760 c3         1 76U      -0.134400
     10 C12         -4.7520    -4.0990    -1.3640 c          1 76U       0.984600
     11 O           -1.2230    -1.1260    -4.1760 o          1 76U      -0.747167
     12 P           -0.3090     0.0120    -3.9330 p5         1 76U       0.657900
     13 O3           0.1580     0.0060    -2.3920 os         1 76U      -0.481200
     14 C           -0.7630     0.0070    -1.3000 c3         1 76U       0.306700
     15 N            2.0600     0.0000     1.1310 nb         1 76U      -0.607000
     16 O4          -0.5500    -0.0010     3.5940 oh         1 76U      -0.501100
     17 C7          -2.1830     0.0010     1.2510 c3         1 76U       0.181100
     18 N1          -2.6730    -1.3840     1.2650 n7         1 76U      -0.530200
     19 C8          -4.1410    -1.4230     1.3050 c3         1 76U       0.076500
     20 C9          -4.6130    -1.3120     2.7560 c3         1 76U       0.160900
     21 F1          -4.1630    -0.1050     3.3020 f          1 76U      -0.254300
     22 C10         -4.6330    -2.7430     0.7090 c3         1 76U      -0.002400
     23 O5          -5.3310    -4.8990    -0.6670 o          1 76U      -0.920300
     24 O6          -4.5410    -4.3690    -2.6620 o          1 76U      -0.920300
     25 H1           2.1290     0.9350     4.0920 hc         1 76U      -0.010967
     26 H2           1.9640    -0.8240     4.1980 hc         1 76U      -0.010967
     27 H3           3.3230    -0.1140     3.3150 hc         1 76U      -0.010967
     28 H4           1.9160     0.0000    -0.9420 h4         1 76U       0.038100
     29 H7          -3.1920    -2.7310    -0.8870 hc         1 76U       0.039200
     30 H8          -4.7370    -1.9710    -1.2950 hc         1 76U       0.039200
     31 H9          -1.3820     0.8950    -1.3510 h1         1 76U       0.011700
     32 H10         -1.3900    -0.8740    -1.3560 h1         1 76U       0.011700
     33 H11         -0.5000     0.8600     3.9730 ho         1 76U       0.375000
     34 H12         -2.5180     0.5110     2.1460 h1         1 76U       0.021200
     35 H13         -2.5680     0.5120     0.3770 h1         1 76U       0.021200
     36 H14         -2.3040    -1.8610     2.0640 hn         1 76U       0.243800
     37 H16         -4.5400    -0.5960     0.7310 h1         1 76U       0.046700
     38 H17         -5.6950    -1.3410     2.7870 h1         1 76U       0.004200
     39 H18         -4.2130    -2.1390     3.3300 h1         1 76U       0.004200
     40 H19         -5.7080    -2.8110     0.8190 hc         1 76U       0.007700
     41 H20         -4.1640    -3.5710     1.2270 hc         1 76U       0.007700
@<TRIPOS>BOND
     1     1     4 ar  
     2     1     6 ar  
     3     1    14 1   
     4     2     3 1   
     5     2     5 ar  
     6     2    15 ar  
     7     3    25 1   
     8     3    26 1   
     9     3    27 1   
    10     4    15 ar  
    11     4    28 1   
    12     5     6 ar  
    13     5    16 1   
    14     6    17 1   
    15     7    12 1   
    16     8    12 1   
    17     9    10 1   
    18     9    22 1   
    19     9    29 1   
    20     9    30 1   
    21    10    23 1   
    22    10    24 1   
    23    11    12 1   
    24    12    13 1   
    25    13    14 1   
    26    14    31 1   
    27    14    32 1   
    28    16    33 1   
    29    17    18 1   
    30    17    34 1   
    31    17    35 1   
    32    18    19 1   
    33    18    36 1   
    34    19    20 1   
    35    19    22 1   
    36    19    37 1   
    37    20    21 1   
    38    20    38 1   
    39    20    39 1   
    40    22    40 1   
    41    22    41 1   
@<TRIPOS>SUBSTRUCTURE
     1 76U         1 TEMP              0 ****  ****    0 ROOT
