@<TRIPOS>MOLECULE
molecule
   56    56     1     0     0
SMALL
bcc


@<TRIPOS>ATOM
      1 C10          0.0000     0.0000     0.0000 c3         1 76V       0.156400
      2 C11          1.5300     0.0000     0.0000 c3         1 76V      -0.097100
      3 C9          -1.8040    -0.0010     1.6140 c          1 76V       0.651100
      4 O2          -2.5890    -0.0000     0.6950 o          1 76V      -0.531000
      5 O3          -0.4850     0.0000     1.3690 os         1 76V      -0.430900
      6 C3          -2.0330    -1.2400     3.8880 cx         1 76V      -0.006900
      7 C2          -2.3070    -0.0010     3.0350 cx         1 76V       0.001100
      8 O1          -3.3330    -0.9330     3.3780 op         1 76V      -0.323600
      9 O4          -2.5990    -1.4480     6.1700 o          1 76V      -0.600100
     10 N1          -0.6780    -0.4080     5.7830 ns         1 76V      -0.543900
     11 C5          -0.4440    -0.2130     7.2160 c3         1 76V       0.039700
     12 C6           0.4560     0.9780     7.4210 c          1 76V       0.655100
     13 O5           0.8610     1.6030     6.4640 o          1 76V      -0.630100
     14 C12          0.2230    -1.4610     7.7980 c3         1 76V      -0.077700
     15 C14          1.5580    -1.7030     7.0900 c3         1 76V      -0.089400
     16 C13         -0.6900    -2.6710     7.5900 c3         1 76V      -0.104100
     17 C15          2.2830    -2.8750     7.7550 c3         1 76V      -0.081100
     18 N2           0.8100     1.3490     8.6670 ns         1 76V      -0.535900
     19 C7           1.6850     2.5080     8.8660 c3         1 76V       0.005700
     20 C8           3.1240     2.0780     8.7400 c          1 76V       0.892600
     21 O7           4.1080     2.9790     8.8860 o          1 76V      -0.840300
     22 C16          1.4470     3.0940    10.2600 c3         1 76V      -0.059700
     23 C18          2.2680     4.3740    10.4220 c3         1 76V      -0.083400
     24 C17          1.8740     2.0760    11.3190 c3         1 76V      -0.087100
     25 C19          1.9350     5.0260    11.7650 c3         1 76V      -0.094100
     26 O6           3.3910     0.9230     8.5080 o          1 76V      -0.840300
     27 H101        -0.3610     0.8850    -0.5110 h1         1 76V       0.044700
     28 H102        -0.3610    -0.8840    -0.5110 h1         1 76V       0.044700
     29 H111         1.8910    -0.1130    -1.0150 hc         1 76V       0.050700
     30 H112         1.8910    -0.8220     0.6060 hc         1 76V       0.050700
     31 H113         1.8910     0.9360     0.4090 hc         1 76V       0.050700
     32 H3          -1.5200    -2.0430     3.3730 h1         1 76V       0.113700
     33 H2          -2.3380     0.9320     3.5840 h1         1 76V       0.135700
     34 HN1         -0.0320    -0.0340     5.1160 hn         1 76V       0.344500
     35 H5          -1.3890    -0.0420     7.7160 h1         1 76V       0.077700
     36 H12          0.3970    -1.3180     8.8570 hc         1 76V       0.061700
     37 H141         2.1710    -0.8130     7.1610 hc         1 76V       0.065700
     38 H142         1.3780    -1.9350     6.0470 hc         1 76V       0.065700
     39 H131        -0.4920    -3.4090     8.3570 hc         1 76V       0.039033
     40 H132        -0.5000    -3.1040     6.6150 hc         1 76V       0.039033
     41 H133        -1.7250    -2.3560     7.6490 hc         1 76V       0.039033
     42 H151         3.3480    -2.7890     7.5770 hc         1 76V       0.026700
     43 H152         1.9210    -3.8070     7.3370 hc         1 76V       0.026700
     44 H153         2.0930    -2.8600     8.8210 hc         1 76V       0.026700
     45 HN2          0.4570     0.8470     9.4580 hn         1 76V       0.302500
     46 H7           1.4660     3.2590     8.1160 h1         1 76V       0.074700
     47 H16          0.3950     3.3210    10.3810 hc         1 76V       0.014700
     48 H181         3.3230     4.1330    10.3880 hc         1 76V       0.076200
     49 H182         2.0280     5.0600     9.6190 hc         1 76V       0.076200
     50 H171         1.5620     2.4210    12.2980 hc         1 76V       0.030700
     51 H172         1.4110     1.1190    11.1090 hc         1 76V       0.030700
     52 H173         2.9520     1.9670    11.3020 hc         1 76V       0.030700
     53 H191         0.8760     4.9210    11.9650 hc         1 76V       0.016700
     54 H192         2.5010     4.5410    12.5520 hc         1 76V       0.016700
     55 H193         2.1940     6.0770    11.7300 hc         1 76V       0.016700
     56 C4          -1.7910    -1.0400     5.3630 c          1 76V       0.667100
@<TRIPOS>BOND
     1     1     2 1   
     2     1     5 1   
     3     1    27 1   
     4     1    28 1   
     5     2    29 1   
     6     2    30 1   
     7     2    31 1   
     8     3     4 2   
     9     3     5 1   
    10     3     7 1   
    11     6     7 1   
    12     6     8 1   
    13     6    56 1   
    14     6    32 1   
    15     7     8 1   
    16     7    33 1   
    17    56     9 2   
    18    56    10 1   
    19    10    11 1   
    20    10    34 1   
    21    11    12 1   
    22    11    14 1   
    23    11    35 1   
    24    12    13 2   
    25    12    18 1   
    26    14    15 1   
    27    14    16 1   
    28    14    36 1   
    29    15    17 1   
    30    15    37 1   
    31    15    38 1   
    32    16    39 1   
    33    16    40 1   
    34    16    41 1   
    35    17    42 1   
    36    17    43 1   
    37    17    44 1   
    38    18    19 1   
    39    18    45 1   
    40    19    20 1   
    41    19    22 1   
    42    19    46 1   
    43    20    21 1   
    44    20    26 1   
    45    22    23 1   
    46    22    24 1   
    47    22    47 1   
    48    23    25 1   
    49    23    48 1   
    50    23    49 1   
    51    24    50 1   
    52    24    51 1   
    53    24    52 1   
    54    25    53 1   
    55    25    54 1   
    56    25    55 1   
@<TRIPOS>SUBSTRUCTURE
     1 76V         1 TEMP              0 ****  ****    0 ROOT
