@<TRIPOS>MOLECULE
76X
   15    15     1     0     0
SMALL
bcc


@<TRIPOS>ATOM
      1 N8           0.0000     0.0000     0.0000 nv         1 76X      -0.545200
      2 C3           1.4000     0.0000     0.0000 ca         1 76X      -0.087700
      3 C2           2.1090     0.0000     1.2030 ca         1 76X       0.485200
      4 N7           1.4180     0.0000     2.4130 nv         1 76X      -0.654500
      5 C4           2.1050    -0.0060    -1.1960 ca         1 76X      -0.084000
      6 C5           3.4920    -0.0060    -1.1460 ca         1 76X      -0.222300
      7 C6           4.1250     0.0010     0.0800 ca         1 76X       0.404200
      8 N1           3.4310     0.0010     1.2030 nb         1 76X      -0.588000
      9 H1          -0.5000     0.8670    -0.0200 hn         1 76X       0.272800
     10 H2          -0.5000    -0.8670    -0.0170 hn         1 76X       0.272800
     11 H3           1.1880     0.8670     2.8580 hn         1 76X       0.274800
     12 H4           1.1890    -0.8670     2.8580 hn         1 76X       0.274800
     13 H5           1.5850    -0.0110    -2.1470 ha         1 76X       0.111000
     14 H6           4.0720    -0.0080    -2.0610 ha         1 76X       0.110000
     15 H7           5.2080     0.0020     0.1210 h4         1 76X      -0.022900
@<TRIPOS>BOND
     1     1     2 1   
     2     1     9 1   
     3     1    10 1   
     4     2     3 ar  
     5     2     5 ar  
     6     3     4 1   
     7     3     8 ar  
     8     4    11 1   
     9     4    12 1   
    10     5     6 ar  
    11     5    13 1   
    12     6     7 ar  
    13     6    14 1   
    14     7     8 ar  
    15     7    15 1   
@<TRIPOS>SUBSTRUCTURE
     1 76X         1 TEMP              0 ****  ****    0 ROOT
