@<TRIPOS>MOLECULE
molecule
   15    15     1     0     0
SMALL
bcc


@<TRIPOS>ATOM
      1 N8           0.0000     0.0000     0.0000 nv         1 76X      -0.978200
      2 C3           1.4000     0.0000     0.0000 ca         1 76X       0.038300
      3 C2           2.1090     0.0000     1.2030 ca         1 76X       0.661200
      4 N7           1.4180     0.0000     2.4130 nv         1 76X      -1.076500
      5 C4           2.1050    -0.0060    -1.1960 ca         1 76X      -0.113000
      6 C5           3.4920    -0.0060    -1.1460 ca         1 76X      -0.260300
      7 C6           4.1250     0.0010     0.0800 ca         1 76X       0.420200
      8 N1           3.4310     0.0010     1.2030 nb         1 76X      -0.710000
      9 H1          -0.5000     0.8670    -0.0200 hn         1 76X       0.427800
     10 H2          -0.5000    -0.8670    -0.0170 hn         1 76X       0.427800
     11 H3           1.1880     0.8670     2.8580 hn         1 76X       0.433800
     12 H4           1.1890    -0.8670     2.8580 hn         1 76X       0.433800
     13 H5           1.5850    -0.0110    -2.1470 ha         1 76X       0.140000
     14 H6           4.0720    -0.0080    -2.0610 ha         1 76X       0.135000
     15 H7           5.2080     0.0020     0.1210 h4         1 76X       0.020100
@<TRIPOS>BOND
     1     1     2 1
     2     4     3 1
     3     2     3 ar
     4     2     5 ar
     5     3     8 ar
     6     5     6 ar
     7     8     7 ar
     8     7     6 ar
     9     1     9 1
    10     1    10 1
    11     4    11 1
    12     4    12 1
    13     5    13 1
    14     6    14 1
    15     7    15 1
@<TRIPOS>SUBSTRUCTURE
     1 76X         1 TEMP              0 ****  ****    0 ROOT
