@<TRIPOS>MOLECULE
molecule
   28    29     1     0     0
SMALL
bcc


@<TRIPOS>ATOM
      1 C1           0.0000     0.0000     0.0000 c          1 76Y       0.530700
      2 C2           1.4670     0.0000     0.0000 cc         1 76Y      -0.287900
      3 C3           2.2810     0.0000     1.1120 cc         1 76Y      -0.020000
      4 C4           3.6030    -0.0050     0.6540 cc         1 76Y      -0.215000
      5 C5           3.5730    -0.0090    -0.7000 cd         1 76Y      -0.031300
      6 C11          4.7560     1.2120    -4.5470 ca         1 76Y      -0.109000
      7 C12          3.6560     1.1980    -3.7080 ca         1 76Y       0.040400
      8 Cl           3.0740     2.6800    -3.0160 cl         1 76Y      -0.092400
      9 C10          5.2160     0.0330    -5.1030 ca         1 76Y      -0.081000
     10 C9           4.5790    -1.1610    -4.8150 ca         1 76Y      -0.115000
     11 C8           3.4830    -1.1760    -3.9720 ca         1 76Y      -0.095000
     12 C7           3.0200     0.0030    -3.4210 ca         1 76Y      -0.149300
     13 N2           2.2800    -0.0050    -1.1100 na         1 76Y      -0.061100
     14 O           -0.6090    -0.0420     1.0530 o          1 76Y      -0.431100
     15 N1          -0.6740     0.0520    -1.1660 nz         1 76Y      -0.684400
     16 H1           1.9580     0.0040     2.1470 ha         1 76Y       0.188000
     17 H2           4.4930    -0.0070     1.2730 ha         1 76Y       0.189000
     18 H3           4.4400    -0.0140    -1.3500 h4         1 76Y       0.202000
     19 H4           1.2410    -0.9040    -2.6870 h1         1 76Y       0.044200
     20 H5           1.2170     0.8640    -2.6880 h1         1 76Y       0.044200
     21 H6           5.2550     2.1470    -4.7710 ha         1 76Y       0.167000
     22 H7           6.0760     0.0430    -5.7610 ha         1 76Y       0.162000
     23 H8           4.9410    -2.0860    -5.2490 ha         1 76Y       0.158000
     24 H9           2.9850    -2.1110    -3.7480 ha         1 76Y       0.142000
     25 H10         -1.6580     0.0540    -0.9830 hn         1 76Y       0.474133
     26 H11         -0.4250     0.8860    -1.6590 hn         1 76Y       0.474133
     27 C6           1.8260    -0.0120    -2.5030 c3         1 76Y       0.083600
     28 H13         -0.4410    -0.7470    -1.7220 hn         1 76Y       0.474133
@<TRIPOS>BOND
     1     4     3 1
     2     4     5 2
     3     3     2 2
     4     5    13 1
     5     2    13 1
     6     2     1 1
     7    15     1 1
     8    13    27 1
     9     1    14 2
    10    11    10 ar
    11    11    12 ar
    12    27    12 1
    13    10     9 ar
    14    12     7 ar
    15     9     6 ar
    16     7     6 ar
    17     7     8 1
    18     3    16 1
    19     4    17 1
    20     5    18 1
    21    27    19 1
    22    27    20 1
    23     6    21 1
    24     9    22 1
    25    10    23 1
    26    11    24 1
    27    15    25 1
    28    15    26 1
    29    28    15 1
@<TRIPOS>SUBSTRUCTURE
     1 76Y         1 TEMP              0 ****  ****    0 ROOT
