@<TRIPOS>MOLECULE
76Y
   28    29     1     0     0
SMALL
bcc


@<TRIPOS>ATOM
      1 C1           0.0000     0.0000     0.0000 c          1 76Y       0.392700
      2 C2           1.4670     0.0000     0.0000 cc         1 76Y      -0.480900
      3 C3           2.2810     0.0000     1.1120 cd         1 76Y       0.024000
      4 C4           3.6030    -0.0050     0.6540 cd         1 76Y      -0.177000
      5 C5           3.5730    -0.0090    -0.7000 cc         1 76Y      -0.192300
      6 C11          4.7560     1.2120    -4.5470 ca         1 76Y      -0.080000
      7 C12          3.6560     1.1980    -3.7080 ca         1 76Y      -0.026600
      8 Cl           3.0740     2.6800    -3.0160 cl         1 76Y      -0.006400
      9 C10          5.2160     0.0330    -5.1030 ca         1 76Y      -0.046000
     10 C9           4.5790    -1.1610    -4.8150 ca         1 76Y      -0.082000
     11 C8           3.4830    -1.1760    -3.9720 ca         1 76Y      -0.065000
     12 C7           3.0200     0.0030    -3.4210 ca         1 76Y      -0.164300
     13 N2           2.2800    -0.0050    -1.1100 na         1 76Y       0.418900
     14 O           -0.6090    -0.0420     1.0530 o          1 76Y      -0.443100
     15 N1          -0.6740     0.0520    -1.1660 nz         1 76Y       0.166600
     16 H1           1.9580     0.0040     2.1470 ha         1 76Y       0.151000
     17 H2           4.4930    -0.0070     1.2730 ha         1 76Y       0.156000
     18 H3           4.4400    -0.0140    -1.3500 h4         1 76Y       0.173000
     19 H4           1.2410    -0.9040    -2.6870 h1         1 76Y       0.017700
     20 H5           1.2170     0.8640    -2.6880 h1         1 76Y       0.017700
     21 H6           5.2550     2.1470    -4.7710 ha         1 76Y       0.133000
     22 H7           6.0760     0.0430    -5.7610 ha         1 76Y       0.124000
     23 H8           4.9410    -2.0860    -5.2490 ha         1 76Y       0.124000
     24 H9           2.9850    -2.1110    -3.7480 ha         1 76Y       0.111000
     25 H10         -1.6580     0.0540    -0.9830 hn         1 76Y       0.249467
     26 H11         -0.4250     0.8860    -1.6590 hn         1 76Y       0.249467
     27 C6           1.8260    -0.0120    -2.5030 c3         1 76Y       0.004600
     28 H13         -0.4410    -0.7470    -1.7220 hn         1 76Y       0.249467
@<TRIPOS>BOND
     1     1     2 1   
     2     1    14 2   
     3     1    15 1   
     4     2     3 2   
     5     2    13 1   
     6     3     4 1   
     7     3    16 1   
     8     4     5 2   
     9     4    17 1   
    10     5    13 1   
    11     5    18 1   
    12     6     7 ar  
    13     6     9 ar  
    14     6    21 1   
    15     7     8 1   
    16     7    12 ar  
    17     9    10 ar  
    18     9    22 1   
    19    10    11 ar  
    20    10    23 1   
    21    11    12 ar  
    22    11    24 1   
    23    12    27 1   
    24    13    27 1   
    25    15    25 1   
    26    15    26 1   
    27    15    28 1   
    28    19    27 1   
    29    20    27 1   
@<TRIPOS>SUBSTRUCTURE
     1 76Y         1 TEMP              0 ****  ****    0 ROOT
