@<TRIPOS>MOLECULE
76Z
   41    43     1     0     0
SMALL
bcc


@<TRIPOS>ATOM
      1 C4          -0.7090    -0.2650    -3.6330 cg         1 76Z      -0.209000
      2 C14          0.0000     0.0000     0.0000 ca         1 76Z      -0.069500
      3 C5           0.0010    -0.1640    -2.3940 ca         1 76Z       0.146000
      4 C6           1.3980    -0.1330    -2.3900 ca         1 76Z      -0.082000
      5 C11         -1.0200     0.9820     3.3160 cc         1 76Z      -0.512600
      6 C7           2.0940    -0.0510    -1.2000 ca         1 76Z      -0.048000
      7 C8           1.4090     0.0000     0.0000 ca         1 76Z      -0.152900
      8 C9           2.2030     1.2090     1.9350 c3         1 76Z      -0.208600
      9 C10          0.8890     1.9920     1.9730 c3         1 76Z      -0.307700
     10 C12         -1.9360     0.0000     3.0510 cd         1 76Z       0.117800
     11 C13         -0.6700     0.1560     1.3090 cc         1 76Z       0.173000
     12 N1          -1.6890    -0.4780     1.8090 nd         1 76Z      -0.576000
     13 N2          -3.8450    -1.4360     3.5710 nz         1 76Z       0.196600
     14 C3          -1.3060    -0.3360    -4.6410 c1         1 76Z      -0.072100
     15 O2          -3.1280     0.0530     5.0550 o          1 76Z      -0.465100
     16 C16         -3.0040    -0.4560     3.9580 c          1 76Z       0.297600
     17 N           -0.2310     1.0870     2.2250 na         1 76Z       1.018100
     18 O1           2.0510     0.0000     1.1910 os         1 76Z      -0.045900
     19 C15         -0.7010    -0.0970    -1.1890 ca         1 76Z      -0.060000
     20 C1          -2.0830    -0.4610    -6.1570 c3         1 76Z       0.308900
     21 O           -3.3830    -1.1040    -5.7010 oh         1 76Z      -0.607800
     22 C2          -1.3070    -1.7980    -6.9760 c3         1 76Z       0.004900
     23 C           -2.1910     0.8620    -6.7000 c3         1 76Z       0.004900
     24 H1           1.9470    -0.3510    -3.2980 ha         1 76Z       0.130000
     25 H2          -0.9260     1.5300     4.2450 h4         1 76Z       0.186000
     26 H3           3.1770    -0.0510    -1.2060 ha         1 76Z       0.123000
     27 H4           3.0070     1.9270     1.8310 h1         1 76Z       0.209700
     28 H5           2.1350     0.4980     1.1200 h1         1 76Z       0.209700
     29 H6           0.1450     1.3730     2.4590 h1         1 76Z      -0.048800
     30 H7           1.0790     2.9390     2.4650 h1         1 76Z      -0.048800
     31 H8          -4.5050    -1.6170     4.3010 hn         1 76Z       0.247800
     32 H9          -4.3320    -1.1510     2.7440 hn         1 76Z       0.247800
     33 H10         -1.7840    -0.0740    -1.1830 ha         1 76Z       0.131000
     34 H11         -4.0520    -0.9540    -6.3490 ho         1 76Z       0.394000
     35 H12         -1.3360    -2.6750    -6.3420 hc         1 76Z       0.020033
     36 H13         -1.8280    -2.0040    -7.9030 hc         1 76Z       0.020033
     37 H14         -0.2770    -1.5410    -7.1910 hc         1 76Z       0.020033
     38 H15         -2.7730     1.4810    -6.0280 hc         1 76Z       0.020033
     39 H16         -2.6800     0.8170    -7.6650 hc         1 76Z       0.020033
     40 H17         -1.2010     1.2870    -6.8160 hc         1 76Z       0.020033
     41 H23         -3.3180    -2.1950     3.1860 hn         1 76Z       0.247800
@<TRIPOS>BOND
     1     1     3 1   
     2     1    14 3   
     3     2     7 ar  
     4     2    11 1   
     5     2    19 ar  
     6     3     4 ar  
     7     3    19 ar  
     8     4     6 ar  
     9     4    24 1   
    10     5    10 2   
    11     5    17 1   
    12     5    25 1   
    13     6     7 ar  
    14     6    26 1   
    15     7    18 1   
    16     8     9 1   
    17     8    18 1   
    18     8    27 1   
    19     8    28 1   
    20     9    17 1   
    21     9    29 1   
    22     9    30 1   
    23    10    12 1   
    24    10    16 1   
    25    11    12 2   
    26    11    17 1   
    27    13    16 1   
    28    13    31 1   
    29    13    32 1   
    30    13    41 1   
    31    14    20 1   
    32    15    16 2   
    33    19    33 1   
    34    20    21 1   
    35    20    22 1   
    36    20    23 1   
    37    21    34 1   
    38    22    35 1   
    39    22    36 1   
    40    22    37 1   
    41    23    38 1   
    42    23    39 1   
    43    23    40 1   
@<TRIPOS>SUBSTRUCTURE
     1 76Z         1 TEMP              0 ****  ****    0 ROOT
