@<TRIPOS>MOLECULE
molecule
   40    44     1     0     0
SMALL
bcc


@<TRIPOS>ATOM
      1 Cl1          0.0000     0.0000     0.0000 cl         1 770      -0.097400
      2 C8           1.7360     0.0000     0.0000 ca         1 770       0.065400
      3 C9           2.4280     0.0000     1.1940 ca         1 770      -0.119000
      4 C10          3.8120    -0.0000     1.1960 ca         1 770      -0.111000
      5 C11          4.5100    -0.0010     0.0010 ca         1 770      -0.132000
      6 C12          3.8300     0.0000    -1.2000 ca         1 770      -0.101000
      7 C7           2.4350    -0.0060    -1.2080 cp         1 770      -0.045000
      8 C2           1.7000    -0.0120    -2.4940 cp         1 770       0.057000
      9 C3           0.9120     1.0880    -2.8540 ca         1 770      -0.171600
     10 C6           0.5980     2.3790    -2.2160 c          1 770       0.727100
     11 O2           1.0170     2.7580    -1.1400 o          1 770      -0.573500
     12 N1          -0.2290     3.0670    -3.0240 ns         1 770      -0.583500
     13 C4           0.2140     1.0810    -4.0770 ca         1 770      -0.094600
     14 C5          -0.5030     2.3700    -4.1410 c          1 770       0.721100
     15 O1          -1.2190     2.7370    -5.0490 o          1 770      -0.566500
     16 C13          0.3110    -0.0260    -4.9220 cp         1 770      -0.022000
     17 C14          1.1070    -1.1290    -4.5510 ca         1 770       0.021800
     18 C1           1.7970    -1.1090    -3.3460 ca         1 770      -0.141000
     19 C15         -0.2700    -0.3540    -6.2350 cp         1 770      -0.080000
     20 C16          0.2080    -1.6290    -6.5750 ca         1 770      -0.008200
     21 N2           1.0300    -2.0750    -5.5530 na         1 770      -0.190300
     22 C18         -0.1820    -2.2060    -7.7810 ca         1 770      -0.147000
     23 C20         -1.0280    -1.5280    -8.6300 ca         1 770      -0.118000
     24 C17         -1.1260     0.3260    -7.1000 ca         1 770      -0.056000
     25 C19         -1.5030    -0.2620    -8.2950 ca         1 770       0.013600
     26 N3          -2.3630     0.4170    -9.1680 ns         1 770      -0.488100
     27 C21         -3.3440     1.1990    -8.6750 c          1 770       0.652900
     28 O3          -3.4300     1.3820    -7.4800 o          1 770      -0.581100
     29 H9           1.8870     0.0000     2.1330 ha         1 770       0.146000
     30 H10          4.3500    -0.0010     2.1360 ha         1 770       0.136000
     31 H11          5.5940     0.0010     0.0090 ha         1 770       0.134000
     32 H12          4.3790    -0.0020    -2.1340 ha         1 770       0.139000
     33 HN1         -0.5930     3.9770    -2.8210 hn         1 770       0.356500
     34 H1           2.4130    -1.9550    -3.0660 ha         1 770       0.143000
     35 HN2          1.5020    -2.9580    -5.5430 hn         1 770       0.303700
     36 H18          0.1810    -3.1900    -8.0510 ha         1 770       0.132000
     37 H20         -1.3270    -1.9830    -9.5670 ha         1 770       0.133000
     38 H17         -1.4950     1.3110    -6.8380 ha         1 770       0.196000
     39 HN3         -2.2640     0.3010   -10.1570 hn         1 770       0.321500
     40 H21         -4.0460     1.6760    -9.3480 h5         1 770       0.029200
@<TRIPOS>BOND
     1     1     2 1   
     2     2     7 ar  
     3     2     3 ar  
     4     3     4 ar  
     5     3    29 1   
     6     4     5 ar  
     7     4    30 1   
     8     5     6 ar  
     9     5    31 1   
    10     6     7 ar  
    11     6    32 1   
    12     7     8 1   
    13     8    18 ar  
    14     8     9 ar  
    15     9    13 ar  
    16     9    10 1   
    17    10    12 1   
    18    10    11 2   
    19    12    14 1   
    20    12    33 1   
    21    13    16 ar  
    22    13    14 1   
    23    14    15 2   
    24    16    19 1   
    25    16    17 ar  
    26    17    21 1   
    27    17    18 ar  
    28    18    34 1   
    29    19    20 ar  
    30    19    24 ar  
    31    20    22 ar  
    32    20    21 1   
    33    21    35 1   
    34    22    23 ar  
    35    22    36 1   
    36    23    25 ar  
    37    23    37 1   
    38    24    25 ar  
    39    24    38 1   
    40    25    26 1   
    41    26    27 1   
    42    26    39 1   
    43    27    28 2   
    44    27    40 1   
@<TRIPOS>SUBSTRUCTURE
     1 770         1 TEMP              0 ****  ****    0 ROOT
