@<TRIPOS>MOLECULE
771
   59    61     1     0     0
SMALL
bcc


@<TRIPOS>ATOM
      1 C1           0.0000     0.0000     0.0000 ce         1 771       0.255800
      2 N1           1.3030     0.0000     0.0000 n2         1 771      -0.499100
      3 N2          -0.6880     0.0000     1.1930 nz         1 771       0.120400
      4 C2          -0.7400    -0.0000    -1.2800 ca         1 771      -0.287900
      5 C3          -0.0430     0.0000    -2.4900 ca         1 771       0.006000
      6 C4          -0.7340    -0.0000    -3.6810 ca         1 771      -0.185500
      7 C5          -2.1250    -0.0010    -3.6800 ca         1 771       0.111600
      8 N3          -2.8210    -0.0010    -4.8850 nu         1 771      -0.364600
      9 C8          -4.2860    -0.0010    -4.8860 c3         1 771       0.228100
     10 C15         -6.0170    -1.4900   -10.6580 c3         1 771       0.232700
     11 C16         -6.5050    -1.5950   -12.0800 ca         1 771      -0.121300
     12 C17         -5.6300    -1.3820   -13.1280 ca         1 771      -0.074500
     13 C18         -6.0760    -1.4780   -14.4320 ca         1 771      -0.101500
     14 C19         -7.3990    -1.7870   -14.6890 ca         1 771      -0.085000
     15 C21         -7.8260    -1.9100   -12.3370 ca         1 771      -0.074500
     16 C20         -8.2740    -2.0010   -13.6410 ca         1 771      -0.101500
     17 C9          -4.7880    -0.0400    -6.3060 ca         1 771      -0.191300
     18 C13         -5.2300    -1.2670    -8.3250 ca         1 771      -0.281000
     19 C14         -4.7670    -1.2310    -7.0160 ca         1 771       0.098600
     20 N4          -4.2800    -2.3970    -6.4160 nu         1 771      -0.425500
     21 S1          -3.4370    -3.5030    -7.3130 s6         1 771       0.958900
     22 C22         -2.0200    -2.5480    -7.9200 c3         1 771       0.013700
     23 O5          -3.0440    -4.4640    -6.3440 o          1 771      -0.573300
     24 O4          -4.3450    -3.8150    -8.3610 o          1 771      -0.573300
     25 C12         -5.7170    -0.1140    -8.9180 ca         1 771       0.161100
     26 O3          -6.1710    -0.1470   -10.1990 os         1 771      -0.252900
     27 C10         -5.2690     1.1130    -6.8980 ca         1 771      -0.151000
     28 C11         -5.7320     1.0800    -8.2030 ca         1 771       0.085100
     29 O2          -6.2060     2.2150    -8.7850 os         1 771      -0.254900
     30 C23         -6.0980     3.2550    -7.8110 c3         1 771       0.215700
     31 C6          -2.8210     0.0050    -2.4760 ca         1 771      -0.185500
     32 C7          -2.1350    -0.0000    -1.2820 ca         1 771       0.006000
     33 H1N          1.8050     0.0000     0.8660 hn         1 771       0.333400
     34 H2N1        -1.2970    -0.7940     1.2280 hn         1 771       0.224467
     35 H2N2        -0.0390    -0.0450     1.9530 hn         1 771       0.224467
     36 H3           1.0410     0.0010    -2.4910 ha         1 771       0.099500
     37 H4          -0.1940     0.0000    -4.6200 ha         1 771       0.130500
     38 HA          -2.3210     0.0370    -5.7510 hn         1 771       0.305800
     39 H8C1        -4.6470     0.8970    -4.3990 h1         1 771       0.023200
     40 H8C2        -4.6470    -0.8720    -4.3510 h1         1 771       0.023200
     41 H151        -6.5940    -2.1550   -10.0270 h1         1 771       0.020200
     42 H152        -4.9710    -1.7680   -10.6130 h1         1 771       0.020200
     43 H17         -4.5930    -1.1390   -12.9270 ha         1 771       0.103500
     44 H18         -5.3900    -1.3100   -15.2540 ha         1 771       0.105500
     45 H19         -7.7500    -1.8600   -15.7110 ha         1 771       0.105000
     46 H21         -8.5120    -2.0780   -11.5160 ha         1 771       0.103500
     47 H20         -9.3100    -2.2450   -13.8420 ha         1 771       0.105500
     48 H13         -5.2140    -2.1970    -8.8800 ha         1 771       0.213000
     49 HB          -4.4550    -2.5700    -5.4460 hn         1 771       0.350800
     50 H221        -1.4340    -2.1980    -7.0790 h1         1 771       0.065367
     51 H222        -2.3750    -1.6980    -8.4900 h1         1 771       0.065367
     52 H223        -1.4050    -3.1760    -8.5520 h1         1 771       0.065367
     53 H10         -5.2810     2.0420    -6.3420 ha         1 771       0.138000
     54 H231        -5.0590     3.3760    -7.5270 h1         1 771       0.002367
     55 H232        -6.6830     2.9940    -6.9380 h1         1 771       0.002367
     56 H233        -6.4680     4.1830    -8.2300 h1         1 771       0.002367
     57 H6          -3.9040     0.0050    -2.4780 ha         1 771       0.130500
     58 H7          -2.6780     0.0040    -0.3440 ha         1 771       0.099500
     59 H23         -1.2300     0.8390     1.2670 hn         1 771       0.224467
@<TRIPOS>BOND
     1     1     2 2   
     2     1     3 1   
     3     1     4 1   
     4     2    33 1   
     5     3    34 1   
     6     3    35 1   
     7     3    59 1   
     8     4     5 ar  
     9     4    32 ar  
    10     5     6 ar  
    11     5    36 1   
    12     6     7 ar  
    13     6    37 1   
    14     7     8 1   
    15     7    31 ar  
    16     8     9 1   
    17     8    38 1   
    18     9    17 1   
    19     9    39 1   
    20     9    40 1   
    21    10    11 1   
    22    10    26 1   
    23    10    41 1   
    24    10    42 1   
    25    11    12 ar  
    26    11    15 ar  
    27    12    13 ar  
    28    12    43 1   
    29    13    14 ar  
    30    13    44 1   
    31    14    16 ar  
    32    14    45 1   
    33    15    16 ar  
    34    15    46 1   
    35    16    47 1   
    36    17    19 ar  
    37    17    27 ar  
    38    18    19 ar  
    39    18    25 ar  
    40    18    48 1   
    41    19    20 1   
    42    20    21 1   
    43    20    49 1   
    44    21    22 1   
    45    21    23 2   
    46    21    24 2   
    47    22    50 1   
    48    22    51 1   
    49    22    52 1   
    50    25    26 1   
    51    25    28 ar  
    52    27    28 ar  
    53    27    53 1   
    54    28    29 1   
    55    29    30 1   
    56    30    54 1   
    57    30    55 1   
    58    30    56 1   
    59    31    32 ar  
    60    31    57 1   
    61    32    58 1   
@<TRIPOS>SUBSTRUCTURE
     1 771         1 TEMP              0 ****  ****    0 ROOT
