@<TRIPOS>MOLECULE
molecule
   59    61     1     0     0
SMALL
bcc


@<TRIPOS>ATOM
      1 C1           0.0000     0.0000     0.0000 ce         1 771       0.533800
      2 N1           1.3030     0.0000     0.0000 n2         1 771      -0.748100
      3 N2          -0.6880     0.0000     1.1930 nz         1 771      -0.740600
      4 C2          -0.7400    -0.0000    -1.2800 ca         1 771      -0.318900
      5 C3          -0.0430     0.0000    -2.4900 ca         1 771      -0.042500
      6 C4          -0.7340    -0.0000    -3.6810 ca         1 771      -0.197000
      7 C5          -2.1250    -0.0010    -3.6800 ca         1 771       0.253600
      8 N3          -2.8210    -0.0010    -4.8850 nu         1 771      -0.781600
      9 C8          -4.2860    -0.0010    -4.8860 c3         1 771       0.286100
     10 C15         -6.0170    -1.4900   -10.6580 c3         1 771       0.158700
     11 C16         -6.5050    -1.5950   -12.0800 ca         1 771      -0.103300
     12 C17         -5.6300    -1.3820   -13.1280 ca         1 771      -0.102000
     13 C18         -6.0760    -1.4780   -14.4320 ca         1 771      -0.128500
     14 C19         -7.3990    -1.7870   -14.6890 ca         1 771      -0.111000
     15 C21         -7.8260    -1.9100   -12.3370 ca         1 771      -0.102000
     16 C20         -8.2740    -2.0010   -13.6410 ca         1 771      -0.128500
     17 C9          -4.7880    -0.0400    -6.3060 ca         1 771      -0.172300
     18 C13         -5.2300    -1.2670    -8.3250 ca         1 771      -0.263000
     19 C14         -4.7670    -1.2310    -7.0160 ca         1 771       0.168600
     20 N4          -4.2800    -2.3970    -6.4160 nu         1 771      -0.769500
     21 S1          -3.4370    -3.5030    -7.3130 s6         1 771       1.326900
     22 C22         -2.0200    -2.5480    -7.9200 c3         1 771      -0.247300
     23 O5          -3.0440    -4.4640    -6.3440 o          1 771      -0.615800
     24 O4          -4.3450    -3.8150    -8.3610 o          1 771      -0.615800
     25 C12         -5.7170    -0.1140    -8.9180 ca         1 771       0.151100
     26 O3          -6.1710    -0.1470   -10.1990 os         1 771      -0.261900
     27 C10         -5.2690     1.1130    -6.8980 ca         1 771      -0.161000
     28 C11         -5.7320     1.0800    -8.2030 ca         1 771       0.083100
     29 O2          -6.2060     2.2150    -8.7850 os         1 771      -0.266900
     30 C23         -6.0980     3.2550    -7.8110 c3         1 771       0.101700
     31 C6          -2.8210     0.0050    -2.4760 ca         1 771      -0.197000
     32 C7          -2.1350    -0.0000    -1.2820 ca         1 771      -0.042500
     33 H1N          1.8050    -0.0000    -0.8660 hn         1 771       0.479400
     34 H2N1        -1.2650    -0.8160     1.2460 hn         1 771       0.470800
     35 H2N2        -1.2620     0.8180     1.2480 hn         1 771       0.470800
     36 H3           1.0410     0.0010    -2.4910 ha         1 771       0.122000
     37 H4          -0.1940     0.0000    -4.6200 ha         1 771       0.158000
     38 HA          -2.3210     0.0380    -5.7510 hn         1 771       0.457800
     39 H8C1        -4.6470     0.8970    -4.3990 h1         1 771       0.051200
     40 H8C2        -4.6470    -0.8720    -4.3510 h1         1 771       0.051200
     41 H151        -4.9710    -1.7680   -10.6130 h1         1 771       0.054200
     42 H152        -6.5940    -2.1550   -10.0270 h1         1 771       0.054200
     43 H17         -4.5930    -1.1390   -12.9270 ha         1 771       0.131000
     44 H18         -5.3900    -1.3100   -15.2540 ha         1 771       0.135500
     45 H19         -7.7500    -1.8600   -15.7110 ha         1 771       0.135000
     46 H21         -8.5120    -2.0780   -11.5160 ha         1 771       0.131000
     47 H20         -9.3100    -2.2450   -13.8420 ha         1 771       0.135500
     48 H13         -5.2140    -2.1970    -8.8800 ha         1 771       0.210000
     49 HB          -4.4550    -2.5700    -5.4450 hn         1 771       0.463800
     50 H221        -2.3620    -1.5860    -8.2820 h1         1 771       0.101033
     51 H222        -1.3130    -2.4000    -7.1130 h1         1 771       0.101033
     52 H223        -1.5400    -3.0880    -8.7270 h1         1 771       0.101033
     53 H10         -5.2810     2.0420    -6.3420 ha         1 771       0.153000
     54 H231        -5.0590     3.3760    -7.5270 h1         1 771       0.045033
     55 H232        -6.6830     2.9940    -6.9380 h1         1 771       0.045033
     56 H233        -6.4680     4.1830    -8.2300 h1         1 771       0.045033
     57 H6          -3.9040     0.0050    -2.4780 ha         1 771       0.158000
     58 H7          -2.6780     0.0040    -0.3440 ha         1 771       0.122000
     59 H23         -0.0380    -0.0020     1.9540 hn         1 771       0.470800
@<TRIPOS>BOND
     1     1     2 2   
     2     1     3 1   
     3     1     4 1   
     4     2    33 1   
     5     3    34 1   
     6     3    35 1   
     7     4     5 ar  
     8     4    32 ar  
     9     5     6 ar  
    10     5    36 1   
    11     6     7 ar  
    12     6    37 1   
    13     7     8 1   
    14     7    31 ar  
    15     8     9 1   
    16     8    38 1   
    17     9    17 1   
    18     9    39 1   
    19     9    40 1   
    20    10    11 1   
    21    10    26 1   
    22    10    41 1   
    23    10    42 1   
    24    11    12 ar  
    25    11    15 ar  
    26    12    13 ar  
    27    12    43 1   
    28    13    14 ar  
    29    13    44 1   
    30    14    16 ar  
    31    14    45 1   
    32    15    16 ar  
    33    15    46 1   
    34    16    47 1   
    35    17    19 ar  
    36    17    27 ar  
    37    18    19 ar  
    38    18    25 ar  
    39    18    48 1   
    40    19    20 1   
    41    20    21 1   
    42    20    49 1   
    43    21    22 1   
    44    21    23 2   
    45    21    24 2   
    46    22    50 1   
    47    22    51 1   
    48    22    52 1   
    49    25    26 1   
    50    25    28 ar  
    51    27    28 ar  
    52    27    53 1   
    53    28    29 1   
    54    29    30 1   
    55    30    54 1   
    56    30    55 1   
    57    30    56 1   
    58    31    32 ar  
    59    31    57 1   
    60    32    58 1   
    61    59     3 1   
@<TRIPOS>SUBSTRUCTURE
     1 771         1 TEMP              0 ****  ****    0 ROOT
