@<TRIPOS>MOLECULE
molecule
   22    23     1     0     0
SMALL
bcc


@<TRIPOS>ATOM
      1 C1           0.0000     0.0000     0.0000 ca         1 772      -0.087000
      2 C2           1.3620     0.0000     0.0000 ca         1 772      -0.216000
      3 C3           2.0590     0.0000     1.2190 ca         1 772      -0.117300
      4 C4           1.3360     0.0050     2.4390 ca         1 772       0.392600
      5 C5          -0.0750    -0.0020     2.4000 ca         1 772       0.211800
      6 C6          -0.7170    -0.0020     1.1930 ca         1 772      -0.142000
      7 C7           3.4670     0.0030     1.2550 ca         1 772      -0.103000
      8 C8           4.0810     0.0020     2.4720 ca         1 772      -0.237300
      9 C9           3.3080     0.0010     3.6440 ca         1 772       0.413300
     10 N10          1.9890    -0.0010     3.5990 nb         1 772      -0.543000
     11 O11         -0.7910    -0.0040     3.5520 os         1 772      -0.386500
     12 P12         -1.3540     1.4900     3.7540 p5         1 772       1.090900
     13 O13         -0.2280     2.4510     3.7050 o          1 772      -0.863500
     14 O14         -2.0910     1.5990     5.1800 o          1 772      -0.863500
     15 C15          3.9660     0.0020     4.9160 cg         1 772       0.195800
     16 N16          4.4870     0.0220     5.9250 n1         1 772      -0.438800
     17 O17         -2.4020     1.8320     2.5820 o          1 772      -0.863500
     18 H1          -0.6820    -0.3540    -0.7640 ha         1 772       0.103000
     19 H2           1.7890    -0.5320    -0.8410 ha         1 772       0.089000
     20 H6          -1.6590    -0.4820     0.9540 ha         1 772       0.132000
     21 H7           3.8950    -0.3000     0.3070 ha         1 772       0.115000
     22 H8           5.0930     0.1150     2.8410 ha         1 772       0.119000
@<TRIPOS>BOND
     1     1     2 ar  
     2     1     6 ar  
     3     1    18 1   
     4     2     3 ar  
     5     2    19 1   
     6     3     4 ar  
     7     3     7 ar  
     8     4     5 ar  
     9     4    10 ar  
    10     5     6 ar  
    11     5    11 1   
    12     6    20 1   
    13     7     8 ar  
    14     7    21 1   
    15     8     9 ar  
    16     8    22 1   
    17     9    10 ar  
    18     9    15 1   
    19    11    12 1   
    20    12    13 1   
    21    12    14 1   
    22    12    17 1   
    23    15    16 3   
@<TRIPOS>SUBSTRUCTURE
     1 772         1 TEMP              0 ****  ****    0 ROOT
