@<TRIPOS>MOLECULE
774
   28    30     1     0     0
SMALL
bcc


@<TRIPOS>ATOM
      1 C6           0.0000     0.0000     0.0000 ca         1 774      -0.102000
      2 C5           1.3880     0.0000     0.0000 ca         1 774      -0.070300
      3 C15         -2.2660    -0.9580     5.0890 cc         1 774      -0.124000
      4 C14         -1.7130    -0.0930     5.9420 cd         1 774       0.052900
      5 C11         -1.6970    -1.0090     3.8290 cc         1 774      -0.063300
      6 C7          -0.6550    -0.0020     1.2180 ca         1 774       0.124800
      7 C16          0.1050    -0.0490     2.4070 ca         1 774       0.472800
      8 C12         -0.6480    -0.1520     3.6790 cd         1 774      -0.110600
      9 C4           2.0760     0.0000     1.2130 ca         1 774       0.202800
     10 C2           3.5550     0.0230     1.2120 c          1 774       0.259600
     11 C10         -2.1590    -1.9110     2.6990 c3         1 774      -0.004100
     12 C9          -2.7790    -1.0830     1.5760 c3         1 774       0.243400
     13 N17          1.4210    -0.0310     2.3710 nb         1 774      -0.571000
     14 N1           4.2300     0.0230     2.3780 nz         1 774       0.213600
     15 O3           4.1610     0.0420     0.1580 o          1 774      -0.435100
     16 O8          -1.9990     0.0830     1.3140 os         1 774      -0.322900
     17 S13         -0.3780     0.7420     5.1600 ss         1 774      -0.221800
     18 H1          -0.5560    -0.0000    -0.9300 ha         1 774       0.148000
     19 H2           1.9290    -0.1190    -0.9310 ha         1 774       0.140000
     20 H3          -3.1080    -1.5800     5.3660 ha         1 774       0.135000
     21 H4          -2.0380     0.0690     6.9620 h4         1 774       0.162000
     22 H5          -2.8980    -2.6070     3.0780 hc         1 774       0.033700
     23 H6          -1.3100    -2.4590     2.3100 hc         1 774       0.033700
     24 H7          -2.8070    -1.6880     0.6780 h1         1 774       0.028700
     25 H8          -3.7700    -0.7720     1.8850 h1         1 774       0.028700
     26 H9           3.9820     0.8350     2.9080 hn         1 774       0.248133
     27 H10          5.2140     0.0330     2.1940 hn         1 774       0.248133
     28 H13          3.9960    -0.7990     2.8990 hn         1 774       0.248133
@<TRIPOS>BOND
     1     1     2 ar  
     2     1     6 ar  
     3     1    18 1   
     4     2     9 ar  
     5     2    19 1   
     6     3     4 2   
     7     3     5 1   
     8     3    20 1   
     9     4    17 1   
    10     4    21 1   
    11     5     8 2   
    12     5    11 1   
    13     6     7 ar  
    14     6    16 1   
    15     7     8 1   
    16     7    13 ar  
    17     8    17 1   
    18     9    10 1   
    19     9    13 ar  
    20    10    14 1   
    21    10    15 2   
    22    11    12 1   
    23    11    22 1   
    24    11    23 1   
    25    12    16 1   
    26    12    24 1   
    27    12    25 1   
    28    14    26 1   
    29    14    27 1   
    30    14    28 1   
@<TRIPOS>SUBSTRUCTURE
     1 774         1 TEMP              0 ****  ****    0 ROOT
