@<TRIPOS>MOLECULE
molecule
   28    30     1     0     0
SMALL
bcc


@<TRIPOS>ATOM
      1 C6           0.0000     0.0000     0.0000 ca         1 774      -0.123000
      2 C5           1.3880     0.0000     0.0000 ca         1 774      -0.121300
      3 C15         -2.2660    -0.9580     5.0890 cc         1 774      -0.152000
      4 C14         -1.7130    -0.0930     5.9420 cd         1 774      -0.040100
      5 C11         -1.6970    -1.0090     3.8290 cd         1 774      -0.065300
      6 C7          -0.6550    -0.0020     1.2180 ca         1 774       0.106800
      7 C16          0.1050    -0.0490     2.4070 ca         1 774       0.512800
      8 C12         -0.6480    -0.1520     3.6790 cc         1 774      -0.148600
      9 C4           2.0760     0.0000     1.2130 ca         1 774       0.274800
     10 C2           3.5550     0.0230     1.2120 c          1 774       0.421600
     11 C10         -2.1590    -1.9110     2.6990 c3         1 774      -0.068100
     12 C9          -2.7790    -1.0830     1.5760 c3         1 774       0.163400
     13 N17          1.4210    -0.0310     2.3710 nb         1 774      -0.700000
     14 N1           4.2300     0.0230     2.3780 nz         1 774      -0.670400
     15 O3           4.1610     0.0420     0.1580 o          1 774      -0.422100
     16 O8          -1.9990     0.0830     1.3140 os         1 774      -0.334900
     17 S13         -0.3780     0.7420     5.1600 ss         1 774      -0.081800
     18 H1          -0.5560    -0.0000    -0.9300 ha         1 774       0.185000
     19 H2           1.9290    -0.1190    -0.9310 ha         1 774       0.176000
     20 H3          -3.1080    -1.5800     5.3660 ha         1 774       0.164000
     21 H4          -2.0380     0.0690     6.9620 h4         1 774       0.190000
     22 H5          -2.8980    -2.6070     3.0780 hc         1 774       0.068700
     23 H6          -1.3100    -2.4590     2.3100 hc         1 774       0.068700
     24 H7          -2.8070    -1.6880     0.6780 h1         1 774       0.075700
     25 H8          -3.7700    -0.7720     1.8850 h1         1 774       0.075700
     26 H9           3.9820     0.8350     2.9080 hn         1 774       0.482133
     27 H10          5.2140     0.0330     2.1940 hn         1 774       0.482133
     28 H13          3.9960    -0.7990     2.8990 hn         1 774       0.482133
@<TRIPOS>BOND
     1    15    10 2
     2    10    14 1
     3    10     9 1
     4     2     9 ar
     5     2     1 ar
     6     9    13 ar
     7     1     6 ar
     8    13     7 ar
     9     6     7 ar
    10     6    16 1
    11     7     8 1
    12    16    12 1
    13    12    11 1
    14     8    17 1
    15     8     5 2
    16    17     4 1
    17    11     5 1
    18     5     3 1
    19     4     3 2
    20     1    18 1
    21     2    19 1
    22     3    20 1
    23     4    21 1
    24    11    22 1
    25    11    23 1
    26    12    24 1
    27    12    25 1
    28    14    26 1
    29    14    27 1
    30    28    14 1
@<TRIPOS>SUBSTRUCTURE
     1 774         1 TEMP              0 ****  ****    0 ROOT
