@<TRIPOS>MOLECULE
775
   40    42     1     0     0
SMALL
bcc


@<TRIPOS>ATOM
      1 C1           0.0000     0.0000     0.0000 c3         1 775       0.007900
      2 C2           1.5300     0.0000     0.0000 c3         1 775      -0.027400
      3 C3           2.0400     0.0000     1.4430 c3         1 775       0.029800
      4 C4           3.5470     0.0000     1.4430 cc         1 775      -0.032200
      5 C5           4.2240     1.1660     1.5510 cd         1 775      -0.300200
      6 C6           5.6350     1.1570     1.5560 c          1 775       0.504500
      7 O7           6.2520     2.2030     1.6530 o          1 775      -0.612500
      8 N8           6.2970    -0.0130     1.4540 n          1 775       0.564300
      9 N9           7.6650    -0.3120     1.4330 nc         1 775      -0.692800
     10 C10          7.8210    -1.6080     1.3170 cd         1 775       0.559200
     11 N11          9.0400    -2.2810     1.2630 nu         1 775      -0.488900
     12 C12         10.2960    -1.5300     1.3360 c3         1 775       0.223100
     13 C13         11.4580    -2.4850     1.2550 ca         1 775      -0.125300
     14 C14         11.9960    -2.8170     0.0260 ca         1 775      -0.071500
     15 C15         13.0620    -3.6930    -0.0480 ca         1 775      -0.100500
     16 C16         13.5910    -4.2380     1.1080 ca         1 775      -0.026600
     17 Cl1         14.9310    -5.3390     1.0160 cl         1 775      -0.022400
     18 C18         13.0520    -3.9070     2.3390 ca         1 775      -0.100500
     19 C19         11.9890    -3.0260     2.4120 ca         1 775      -0.071500
     20 C20          6.5380    -2.2080     1.2580 cd         1 775      -0.286300
     21 C21          6.2560    -3.6050     1.1320 ch         1 775       0.275800
     22 N22          6.0280    -4.7160     1.0510 n1         1 775      -0.410800
     23 C23          5.6030    -1.1790     1.3460 cc         1 775      -0.122700
     24 N24          4.2310    -1.1750     1.3410 na         1 775      -0.062400
     25 H1          -0.3610    -0.0730    -1.0190 hc         1 775       0.005700
     26 H2          -0.3610     0.9190     0.4460 hc         1 775       0.005700
     27 H3          -0.3610    -0.8460     0.5720 hc         1 775       0.005700
     28 H4           1.8910    -0.8850    -0.5110 hc         1 775       0.018700
     29 H5           1.8910     0.8840    -0.5110 hc         1 775       0.018700
     30 H6           1.7980    -0.9460     1.9110 hc         1 775       0.029700
     31 H7           1.5690     0.8060     1.9920 hc         1 775       0.029700
     32 H8           3.6860     2.0920     1.7100 ha         1 775       0.157000
     33 H10          9.0650    -3.2530     1.0250 hn         1 775       0.302800
     34 H11         10.2920    -0.7470     0.5880 h1         1 775       0.031700
     35 H12         10.3960    -1.0890     2.3200 h1         1 775       0.031700
     36 H13         11.5510    -2.4310    -0.8830 ha         1 775       0.112000
     37 H14         13.4840    -3.9530    -1.0120 ha         1 775       0.117000
     38 H15         13.4660    -4.3340     3.2440 ha         1 775       0.117000
     39 H16         11.5380    -2.8040     3.3710 ha         1 775       0.112000
     40 H9           3.7320    -2.0380     1.2570 hn         1 775       0.293800
@<TRIPOS>BOND
     1     1     2 1   
     2     1    25 1   
     3     1    26 1   
     4     1    27 1   
     5     2     3 1   
     6     2    28 1   
     7     2    29 1   
     8     3     4 1   
     9     3    30 1   
    10     3    31 1   
    11     4     5 2   
    12     4    24 1   
    13     5     6 1   
    14     5    32 1   
    15     6     7 2   
    16     6     8 1   
    17     8     9 1   
    18     8    23 1   
    19     9    10 2   
    20    10    11 1   
    21    10    20 1   
    22    11    12 1   
    23    11    33 1   
    24    12    13 1   
    25    12    34 1   
    26    12    35 1   
    27    13    14 ar  
    28    13    19 ar  
    29    14    15 ar  
    30    14    36 1   
    31    15    16 ar  
    32    15    37 1   
    33    16    17 1   
    34    16    18 ar  
    35    18    19 ar  
    36    18    38 1   
    37    19    39 1   
    38    20    21 1   
    39    20    23 2   
    40    21    22 3   
    41    23    24 1   
    42    24    40 1   
@<TRIPOS>SUBSTRUCTURE
     1 775         1 TEMP              0 ****  ****    0 ROOT
