@<TRIPOS>MOLECULE
molecule
   40    42     1     0     0
SMALL
bcc


@<TRIPOS>ATOM
      1 C1           0.0000     0.0000     0.0000 c3         1 775      -0.093100
      2 C2           1.5300     0.0000     0.0000 c3         1 775      -0.083400
      3 C3           2.0400     0.0000     1.4430 c3         1 775      -0.048200
      4 C4           3.5470     0.0000     1.4430 cc         1 775       0.159800
      5 C5           4.2240     1.1660     1.5510 cd         1 775      -0.320200
      6 C6           5.6350     1.1570     1.5560 c          1 775       0.614500
      7 O7           6.2520     2.2030     1.6530 o          1 775      -0.572500
      8 N8           6.2970    -0.0130     1.4540 n          1 775       0.107300
      9 N9           7.6650    -0.3120     1.4330 nc         1 775      -0.542800
     10 C10          7.8210    -1.6080     1.3170 cd         1 775       0.672200
     11 N11          9.0400    -2.2810     1.2630 nu         1 775      -0.902900
     12 C12         10.2960    -1.5300     1.3360 c3         1 775       0.285100
     13 C13         11.4580    -2.4850     1.2550 ca         1 775      -0.118300
     14 C14         11.9960    -2.8170     0.0260 ca         1 775      -0.101000
     15 C15         13.0620    -3.6930    -0.0480 ca         1 775      -0.125000
     16 C16         13.5910    -4.2380     1.1080 ca         1 775       0.037400
     17 Cl1         14.9310    -5.3390     1.0160 cl         1 775      -0.105400
     18 C18         13.0520    -3.9070     2.3390 ca         1 775      -0.125000
     19 C19         11.9890    -3.0260     2.4120 ca         1 775      -0.101000
     20 C20          6.5380    -2.2080     1.2580 cd         1 775      -0.317300
     21 C21          6.2560    -3.6050     1.1320 ch         1 775       0.273800
     22 N22          6.0280    -4.7160     1.0510 n1         1 775      -0.388800
     23 C23          5.6030    -1.1790     1.3460 cc         1 775       0.215300
     24 N24          4.2310    -1.1750     1.3410 na         1 775      -0.596400
     25 H1          -0.3610    -0.0730    -1.0190 hc         1 775       0.040367
     26 H2          -0.3610     0.9190     0.4460 hc         1 775       0.040367
     27 H3          -0.3610    -0.8460     0.5720 hc         1 775       0.040367
     28 H4           1.8910    -0.8850    -0.5110 hc         1 775       0.051200
     29 H5           1.8910     0.8840    -0.5110 hc         1 775       0.051200
     30 H6           1.7980    -0.9460     1.9110 hc         1 775       0.066700
     31 H7           1.5690     0.8060     1.9920 hc         1 775       0.066700
     32 H8           3.6860     2.0920     1.7100 ha         1 775       0.185000
     33 H10          9.0650    -3.2530     1.0250 hn         1 775       0.457800
     34 H11         10.2920    -0.7470     0.5880 h1         1 775       0.060200
     35 H12         10.3960    -1.0890     2.3200 h1         1 775       0.060200
     36 H13         11.5510    -2.4310    -0.8830 ha         1 775       0.143000
     37 H14         13.4840    -3.9530    -1.0120 ha         1 775       0.147500
     38 H15         13.4660    -4.3340     3.2440 ha         1 775       0.147500
     39 H16         11.5380    -2.8040     3.3710 ha         1 775       0.143000
     40 H9           3.7320    -2.0380     1.2570 hn         1 775       0.473800
@<TRIPOS>BOND
     1    17    16 1
     2    18    16 ar
     3    18    19 ar
     4    16    15 ar
     5    19    13 ar
     6    15    14 ar
     7    13    14 ar
     8    13    12 1
     9    12    11 1
    10     7     6 2
    11    11    10 1
    12     9    10 2
    13     9     8 1
    14    10    20 1
    15     6     8 1
    16     6     5 1
    17     8    23 1
    18    20    23 2
    19    20    21 1
    20     5     4 2
    21    23    24 1
    22    21    22 3
    23     1     2 1
    24     4    24 1
    25     4     3 1
    26     2     3 1
    27     1    25 1
    28     1    26 1
    29     1    27 1
    30     2    28 1
    31     2    29 1
    32     3    30 1
    33     3    31 1
    34     5    32 1
    35    11    33 1
    36    12    34 1
    37    12    35 1
    38    14    36 1
    39    15    37 1
    40    18    38 1
    41    19    39 1
    42    24    40 1
@<TRIPOS>SUBSTRUCTURE
     1 775         1 TEMP              0 ****  ****    0 ROOT
