@<TRIPOS>MOLECULE
779
   72    75     1     0     0
SMALL
bcc


@<TRIPOS>ATOM
      1 C1           0.0000     0.0000     0.0000 c          1 779       0.632500
      2 C2           1.5130     0.0000     0.0000 c3         1 779       0.026200
      3 N3           1.8790     0.0000     1.4260 nu         1 779      -0.545200
      4 C4           0.7020     0.0000     2.1320 c2         1 779       0.404800
      5 N5          -0.3830     0.0010     1.2900 n          1 779      -0.005300
      6 O6          -0.7240     0.0050    -0.9720 o          1 779      -0.626500
      7 C7           2.0480    -1.2570    -0.6890 c3         1 779      -0.031400
      8 C8           1.3650     2.4930    -0.0990 c3         1 779      -0.050700
      9 C9           1.4640    -2.4980    -0.0120 c3         1 779      -0.040400
     10 C10          1.9980    -3.7550    -0.7010 c3         1 779      -0.046700
     11 C11          1.7120     3.7200    -0.9430 c3         1 779      -0.032400
     12 C12          1.0280     4.9550    -0.3540 c3         1 779       0.033700
     13 C13          1.5120     5.1690     1.0820 c3         1 779      -0.046400
     14 C14          1.1650     3.9410     1.9260 c3         1 779      -0.011400
     15 C15          1.8490     2.7070     1.3370 c3         1 779      -0.080400
     16 C16          1.5140    -4.9950     0.0540 c3         1 779      -0.026900
     17 C17          2.0490    -6.2520    -0.6360 c3         1 779      -0.022900
     18 C18          1.5370    -6.3000    -2.0770 c3         1 779      -0.025400
     19 C19          2.0210    -5.0590    -2.8320 c3         1 779      -0.022900
     20 C20          1.4870    -3.8030    -2.1420 c3         1 779      -0.026900
     21 N21          0.6250    -0.0000     3.4310 n2         1 779      -0.799100
     22 N22          1.3610     6.1300    -1.1620 ns         1 779      -0.212900
     23 C23          0.5320     7.1930    -1.1780 c          1 779       0.567100
     24 C24          2.0490     1.2570    -0.6880 c3         1 779      -0.019400
     25 C25         -1.7780     0.0020     1.7390 c3         1 779       0.085300
     26 O26         -0.4910     7.1770    -0.5220 o          1 779      -0.691100
     27 N27          0.8390     8.2750    -1.9220 ns         1 779      -0.055100
     28 C28          0.0380     9.4200    -1.8530 ca         1 779      -0.072400
     29 C29         -0.1320    10.2200    -2.9770 ca         1 779      -0.121000
     30 C30         -0.9220    11.3490    -2.9050 ca         1 779      -0.083000
     31 C31         -1.5450    11.6860    -1.7180 ca         1 779      -0.119000
     32 C32         -1.3770    10.8930    -0.5960 ca         1 779      -0.083000
     33 C33         -0.5920     9.7580    -0.6630 ca         1 779      -0.121000
     34 H1           3.1290    -1.2780    -0.6120 hc         1 779       0.034700
     35 H2           1.7600    -1.2460    -1.7330 hc         1 779       0.034700
     36 H3           0.2910     2.3500    -0.0980 hc         1 779       0.045700
     37 H4           1.7520    -2.5080     1.0330 hc         1 779       0.023700
     38 H5           0.3830    -2.4750    -0.0880 hc         1 779       0.023700
     39 H6           3.0810    -3.7380    -0.7040 hc         1 779       0.028700
     40 H7           1.3670     3.5670    -1.9590 hc         1 779       0.019200
     41 H8           2.7850     3.8670    -0.9400 hc         1 779       0.019200
     42 H9          -0.0450     4.8050    -0.3520 h1         1 779       0.064700
     43 H10          2.5860     5.3140     1.0810 hc         1 779       0.023700
     44 H11          1.0250     6.0420     1.4990 hc         1 779       0.023700
     45 H12          1.5100     4.0940     2.9420 hc         1 779       0.019200
     46 H13          0.0910     3.7940     1.9230 hc         1 779       0.019200
     47 H14          1.6000     1.8380     1.9340 hc         1 779       0.030700
     48 H15          2.9220     2.8560     1.3360 hc         1 779       0.030700
     49 H16          0.4310    -5.0170     0.0530 hc         1 779       0.018450
     50 H17          1.8790    -4.9610     1.0730 hc         1 779       0.018450
     51 H18          3.1320    -6.2270    -0.6400 hc         1 779       0.012700
     52 H19          1.7040    -7.1300    -0.1030 hc         1 779       0.012700
     53 H20          0.4540    -6.3200    -2.0740 hc         1 779       0.013700
     54 H21          1.9180    -7.1890    -2.5650 hc         1 779       0.013700
     55 H22          3.1040    -5.0380    -2.8310 hc         1 779       0.012700
     56 H23          1.6560    -5.0930    -3.8510 hc         1 779       0.012700
     57 H24          1.8330    -2.9250    -2.6760 hc         1 779       0.018450
     58 H25          0.4040    -3.8260    -2.1400 hc         1 779       0.018450
     59 H26          1.4600    -0.0010     3.9820 hn         1 779       0.333400
     60 H28          2.1940     6.1370    -1.7160 hn         1 779       0.165500
     61 H29          3.1190     1.3270    -0.5310 hc         1 779       0.031700
     62 H30          1.8430     1.2030    -1.7510 hc         1 779       0.031700
     63 H31         -2.4150     0.3610     0.9400 h1         1 779       0.023700
     64 H32         -2.0710    -1.0060     2.0090 h1         1 779       0.023700
     65 H33         -1.8800     0.6500     2.6010 h1         1 779       0.023700
     66 H34          1.6620     8.2740    -2.4910 hn         1 779       0.159500
     67 H35          0.3560     9.9570    -3.9080 ha         1 779       0.122000
     68 H36         -1.0560    11.9720    -3.7810 ha         1 779       0.101500
     69 H37         -2.1630    12.5740    -1.6640 ha         1 779       0.101000
     70 H38         -1.8670    11.1580     0.3330 ha         1 779       0.101500
     71 H39         -0.4600     9.1380     0.2150 ha         1 779       0.122000
     72 H40          2.8050    -0.0060     1.8060 hn         1 779       0.335800
@<TRIPOS>BOND
     1     1     2 1   
     2     1     5 1   
     3     1     6 2   
     4     2     3 1   
     5     2     7 1   
     6     2    24 1   
     7     3     4 1   
     8     3    72 1   
     9     4     5 1   
    10     4    21 2   
    11     5    25 1   
    12     7     9 1   
    13     7    34 1   
    14     7    35 1   
    15     8    11 1   
    16     8    15 1   
    17     8    24 1   
    18     8    36 1   
    19     9    10 1   
    20     9    37 1   
    21     9    38 1   
    22    10    16 1   
    23    10    20 1   
    24    10    39 1   
    25    11    12 1   
    26    11    40 1   
    27    11    41 1   
    28    12    13 1   
    29    12    22 1   
    30    12    42 1   
    31    13    14 1   
    32    13    43 1   
    33    13    44 1   
    34    14    15 1   
    35    14    45 1   
    36    14    46 1   
    37    15    47 1   
    38    15    48 1   
    39    16    17 1   
    40    16    49 1   
    41    16    50 1   
    42    17    18 1   
    43    17    51 1   
    44    17    52 1   
    45    18    19 1   
    46    18    53 1   
    47    18    54 1   
    48    19    20 1   
    49    19    55 1   
    50    19    56 1   
    51    20    57 1   
    52    20    58 1   
    53    21    59 1   
    54    22    23 1   
    55    22    60 1   
    56    23    26 2   
    57    23    27 1   
    58    24    61 1   
    59    24    62 1   
    60    25    63 1   
    61    25    64 1   
    62    25    65 1   
    63    27    28 1   
    64    27    66 1   
    65    28    29 ar  
    66    28    33 ar  
    67    29    30 ar  
    68    29    67 1   
    69    30    31 ar  
    70    30    68 1   
    71    31    32 ar  
    72    31    69 1   
    73    32    33 ar  
    74    32    70 1   
    75    33    71 1   
@<TRIPOS>SUBSTRUCTURE
     1 779         1 TEMP              0 ****  ****    0 ROOT
