@<TRIPOS>MOLECULE
molecule
   48    49     1     0     0
SMALL
bcc


@<TRIPOS>ATOM
      1 N1           0.0000     0.0000     0.0000 ns         1 77A      -0.502100
      2 C2           1.4160     0.0000     0.0000 ca         1 77A       0.085600
      3 C3           2.0810     0.0000     1.2150 ca         1 77A      -0.154000
      4 C4           3.4760     0.0000     1.2310 ca         1 77A       0.045400
      5 C5           4.1870     0.0010     0.0300 ca         1 77A      -0.144000
      6 C6           3.5030     0.0010    -1.1850 ca         1 77A      -0.108000
      7 C7           2.1080     0.0010    -1.2000 ca         1 77A       0.053100
      8 O8           1.4590     0.0010    -2.3990 os         1 77A      -0.353900
      9 C9           1.1510    -1.2690    -2.9690 c3         1 77A       0.125700
     10 Cl10         4.3210    -0.0000     2.7300 cl         1 77A      -0.088400
     11 C11         -0.8640    -0.0010     1.1070 c          1 77A       0.810100
     12 O12         -0.5110    -0.0010     2.2820 o          1 77A      -0.556100
     13 N13         -2.2090    -0.0010     0.6670 ns         1 77A      -0.579400
     14 C14         -3.3750    -0.0020     1.4360 ca         1 77A       0.489900
     15 N15         -3.2850    -0.0020     2.7810 nb         1 77A      -0.735000
     16 C16         -4.4530    -0.0030     3.4520 ca         1 77A       0.572300
     17 C17         -5.6680    -0.0040     2.8050 ca         1 77A       0.228900
     18 N18         -5.7590    -0.0040     1.4600 nb         1 77A      -0.561000
     19 C19         -4.5910    -0.0030     0.7870 ca         1 77A       0.184900
     20 O20         -4.4010    -0.0050     4.8190 os         1 77A      -0.415100
     21 C21         -3.1030    -0.0050     5.4090 c3         1 77A       0.138100
     22 C22         -3.1760    -0.7300     6.7500 c3         1 77A       0.163800
     23 N23         -3.6070    -2.0950     6.5450 n3         1 77A      -0.720600
     24 C24         -3.7180    -2.8110     7.8230 c3         1 77A       0.146100
     25 C25         -2.6510     1.4390     5.5890 c3         1 77A      -0.111100
     26 C26         -2.6890    -2.8120     5.6520 c3         1 77A       0.146100
     27 HN1         -0.4390     0.0010    -0.9000 hn         1 77A       0.319500
     28 H3           1.5240    -0.0000     2.1430 ha         1 77A       0.193000
     29 H5           5.2700     0.0010     0.0420 ha         1 77A       0.149000
     30 H6           4.0550     0.0010    -2.1170 ha         1 77A       0.151000
     31 H91          0.1330    -1.2620    -3.3390 h1         1 77A       0.038033
     32 H92          1.2550    -2.0390    -2.2140 h1         1 77A       0.038033
     33 H93          1.8310    -1.4720    -3.7870 h1         1 77A       0.038033
     34 HN13        -2.3420    -0.0000    -0.3250 hn         1 77A       0.319500
     35 H17         -6.5780    -0.0050     3.3930 h4         1 77A       0.047100
     36 H19         -4.6080    -0.0030    -0.2960 h4         1 77A       0.024100
     37 H21         -2.4090    -0.5210     4.7560 h1         1 77A       0.087700
     38 H221        -3.8820    -0.2230     7.3950 h1         1 77A       0.044700
     39 H222        -2.1970    -0.7280     7.2140 h1         1 77A       0.044700
     40 H241        -4.1050    -3.8070     7.6460 h1         1 77A       0.033367
     41 H242        -2.7400    -2.8800     8.2840 h1         1 77A       0.033367
     42 H243        -4.3900    -2.2740     8.4810 h1         1 77A       0.033367
     43 H251        -1.6470     1.4550     5.9960 hc         1 77A       0.046700
     44 H252        -2.6590     1.9420     4.6300 hc         1 77A       0.046700
     45 H253        -3.3240     1.9470     6.2690 hc         1 77A       0.046700
     46 H261        -1.7070    -2.3560     5.7010 h1         1 77A       0.033367
     47 H262        -3.0600    -2.7610     4.6360 h1         1 77A       0.033367
     48 H263        -2.6210    -3.8480     5.9600 h1         1 77A       0.033367
@<TRIPOS>BOND
     1     1    11 1   
     2     1     2 1   
     3     1    27 1   
     4     2     3 ar  
     5     2     7 ar  
     6     3     4 ar  
     7     3    28 1   
     8     4    10 1   
     9     4     5 ar  
    10     5     6 ar  
    11     5    29 1   
    12     6     7 ar  
    13     6    30 1   
    14     7     8 1   
    15     8     9 1   
    16     9    31 1   
    17     9    32 1   
    18     9    33 1   
    19    11    12 2   
    20    11    13 1   
    21    13    14 1   
    22    13    34 1   
    23    14    15 ar  
    24    14    19 ar  
    25    15    16 ar  
    26    16    20 1   
    27    16    17 ar  
    28    17    18 ar  
    29    17    35 1   
    30    18    19 ar  
    31    19    36 1   
    32    20    21 1   
    33    21    25 1   
    34    21    22 1   
    35    21    37 1   
    36    22    23 1   
    37    22    38 1   
    38    22    39 1   
    39    23    26 1   
    40    23    24 1   
    41    24    40 1   
    42    24    41 1   
    43    24    42 1   
    44    25    43 1   
    45    25    44 1   
    46    25    45 1   
    47    26    46 1   
    48    26    47 1   
    49    26    48 1   
@<TRIPOS>SUBSTRUCTURE
     1 77A         1 TEMP              0 ****  ****    0 ROOT
