@<TRIPOS>MOLECULE
77B
   73    76     1     0     0
SMALL
bcc


@<TRIPOS>ATOM
      1 C14          0.0000     0.0000     0.0000 ca         1 77B      -0.105500
      2 C13          1.3830     0.0000     0.0000 ca         1 77B      -0.089000
      3 C12          2.0750     0.0000     1.1970 ca         1 77B      -0.105500
      4 C11          1.3830     0.0000     2.3940 ca         1 77B      -0.074500
      5 C10          0.0010     0.0020     2.3950 ca         1 77B      -0.121300
      6 C15         -0.6900    -0.0040     1.1980 ca         1 77B      -0.074500
      7 C20         -9.3150    -4.1010     6.2110 ca         1 77B      -0.100500
      8 C19         -9.9990    -2.8990     6.2260 ca         1 77B      -0.083500
      9 C18        -10.0020    -2.0920     5.1040 ca         1 77B      -0.131300
     10 C17        -10.7480    -0.7820     5.1200 c3         1 77B       0.114300
     11 N3          -9.8550     0.2830     5.5830 ns         1 77B      -0.192900
     12 C2          -9.3890     2.6440     6.1550 cx         1 77B       0.024100
     13 O1          -9.8890     3.5500     7.1430 op         1 77B      -0.313600
     14 C3          -8.9260     2.6040     7.6120 cx         1 77B       0.021100
     15 O4          -7.3950     4.1090     8.5920 o          1 77B      -0.626100
     16 O2         -11.4550     1.8050     5.3810 o          1 77B      -0.615100
     17 C23         -9.3250    -2.4880     3.9660 ca         1 77B      -0.083500
     18 C22         -8.6380    -3.6880     3.9520 ca         1 77B      -0.100500
     19 C21         -8.6350    -4.4940     5.0750 ca         1 77B      -0.090000
     20 N1          -6.4630     2.4450     7.4590 ns         1 77B      -0.164900
     21 C5          -5.1170     2.8730     7.8470 c3         1 77B      -0.055300
     22 O5          -4.5480     2.0680     5.7020 o          1 77B      -0.652100
     23 C24         -4.6550     2.0660     9.0630 c3         1 77B      -0.077700
     24 C26         -4.8260     0.5730     8.7780 c3         1 77B      -0.031400
     25 C25         -5.4970     2.4530    10.2800 c3         1 77B      -0.009100
     26 C27         -3.8290     0.1410     7.7020 c3         1 77B      -0.063100
     27 N2          -2.8910     3.0710     6.7850 n          1 77B      -0.135800
     28 C7          -1.9020     3.0370     5.6970 c3         1 77B      -0.009300
     29 C8          -1.6520     1.6160     5.2620 c          1 77B       0.691100
     30 O7          -0.9930     1.3710     4.1190 os         1 77B      -0.414900
     31 C9          -0.7520     0.0010     3.6990 c3         1 77B       0.294700
     32 O6          -2.0450     0.6980     5.9420 o          1 77B      -0.573000
     33 C30         -0.5990     3.6560     6.2450 c3         1 77B      -0.022400
     34 C29         -1.0930     4.5130     7.4400 c3         1 77B      -0.032400
     35 C28         -2.2560     3.6460     7.9840 c3         1 77B       0.034000
     36 H14         -0.5420    -0.0020    -0.9380 ha         1 77B       0.104500
     37 H13          1.9250     0.0020    -0.9380 ha         1 77B       0.103000
     38 H12          3.1580    -0.0010     1.1970 ha         1 77B       0.104500
     39 H11          1.9250     0.0020     3.3320 ha         1 77B       0.106500
     40 H15         -1.7730    -0.0030     1.1990 ha         1 77B       0.106500
     41 H19        -10.5330    -2.5900     7.1170 ha         1 77B       0.108500
     42 H171       -11.0960    -0.5520     4.1200 h1         1 77B       0.031200
     43 H172       -11.5960    -0.8580     5.7900 h1         1 77B       0.031200
     44 HN3         -8.9110     0.0690     5.8390 hn         1 77B       0.176500
     45 H2          -8.6760     3.0740     5.4620 h1         1 77B       0.074700
     46 H3          -9.3370     1.7910     8.1980 h1         1 77B       0.071700
     47 H23         -9.3280    -1.8560     3.0860 ha         1 77B       0.108500
     48 H22         -8.1060    -3.9970     3.0610 ha         1 77B       0.105500
     49 H21         -8.0970    -5.4350     5.0640 ha         1 77B       0.104000
     50 HN1         -6.5800     1.6890     6.8140 hn         1 77B       0.196500
     51 H5          -5.1310     3.9270     8.0970 h1         1 77B       0.077700
     52 H24         -3.6120     2.2780     9.2620 hc         1 77B       0.042700
     53 H261        -4.6450     0.0090     9.6850 hc         1 77B       0.014200
     54 H262        -5.8350     0.3840     8.4320 hc         1 77B       0.014200
     55 H251        -5.7260     3.5110    10.2400 hc         1 77B       0.014700
     56 H252        -4.9410     2.2380    11.1860 hc         1 77B       0.014700
     57 H253        -6.4180     1.8830    10.2790 hc         1 77B       0.014700
     58 H271        -3.5780    -0.9040     7.8410 hc         1 77B       0.028700
     59 H272        -2.9310     0.7410     7.7800 hc         1 77B       0.028700
     60 H273        -4.2720     0.2790     6.7230 hc         1 77B       0.028700
     61 H7          -2.2610     3.6240     4.8600 h1         1 77B       0.054700
     62 H91         -0.1660    -0.5100     4.4540 h1         1 77B       0.013200
     63 H92         -1.6980    -0.5090     3.5700 h1         1 77B       0.013200
     64 H301         0.0780     2.8820     6.5850 hc         1 77B       0.033200
     65 H302        -0.1290     4.2820     5.4950 hc         1 77B       0.033200
     66 H291        -0.3140     4.6240     8.1840 hc         1 77B       0.030700
     67 H292        -1.4570     5.4760     7.1000 hc         1 77B       0.030700
     68 H281        -1.8710     2.8580     8.6190 h1         1 77B       0.032200
     69 H282        -2.9640     4.2630     8.5250 h1         1 77B       0.032200
     70 C6          -4.1660     2.6410     6.7000 c          1 77B       0.619100
     71 C4          -7.5410     3.1070     7.9240 c          1 77B       0.581100
     72 C16        -10.3080     1.5480     5.6790 c          1 77B       0.576100
     73 H20         -9.3120    -4.7330     7.0910 ha         1 77B       0.105500
@<TRIPOS>BOND
     1     1     2 ar  
     2     1     6 ar  
     3     1    36 1   
     4     2     3 ar  
     5     2    37 1   
     6     3     4 ar  
     7     3    38 1   
     8     4     5 ar  
     9     4    39 1   
    10     5     6 ar  
    11     5    31 1   
    12     6    40 1   
    13     7     8 ar  
    14     7    19 ar  
    15     7    73 1   
    16     8     9 ar  
    17     8    41 1   
    18     9    10 1   
    19     9    17 ar  
    20    10    11 1   
    21    10    42 1   
    22    10    43 1   
    23    11    44 1   
    24    11    72 1   
    25    12    13 1   
    26    12    14 1   
    27    12    45 1   
    28    12    72 1   
    29    13    14 1   
    30    14    46 1   
    31    14    71 1   
    32    15    71 2   
    33    16    72 2   
    34    17    18 ar  
    35    17    47 1   
    36    18    19 ar  
    37    18    48 1   
    38    19    49 1   
    39    20    21 1   
    40    20    50 1   
    41    20    71 1   
    42    21    23 1   
    43    21    51 1   
    44    21    70 1   
    45    22    70 2   
    46    23    24 1   
    47    23    25 1   
    48    23    52 1   
    49    24    26 1   
    50    24    53 1   
    51    24    54 1   
    52    25    55 1   
    53    25    56 1   
    54    25    57 1   
    55    26    58 1   
    56    26    59 1   
    57    26    60 1   
    58    27    28 1   
    59    27    35 1   
    60    27    70 1   
    61    28    29 1   
    62    28    33 1   
    63    28    61 1   
    64    29    30 1   
    65    29    32 2   
    66    30    31 1   
    67    31    62 1   
    68    31    63 1   
    69    33    34 1   
    70    33    64 1   
    71    33    65 1   
    72    34    35 1   
    73    34    66 1   
    74    34    67 1   
    75    35    68 1   
    76    35    69 1   
@<TRIPOS>SUBSTRUCTURE
     1 77B         1 TEMP              0 ****  ****    0 ROOT
