@<TRIPOS>MOLECULE
molecule
   51    55     1     0     0
SMALL
bcc


@<TRIPOS>ATOM
      1 C10          0.0000     0.0000     0.0000 c          1 77C       0.713100
      2 C13         -0.6490    -0.0140    -3.6650 c3         1 77C       0.146200
      3 C15         -0.7790    -1.4520    -4.1700 cx         1 77C      -0.168700
      4 C20         -2.7250    -1.2150    -1.2890 ca         1 77C      -0.065000
      5 C21         -0.5840     1.3580    -5.7120 ca         1 77C       0.747200
      6 C22          0.1110     2.1270    -6.6650 ca         1 77C      -0.376600
      7 C01          3.5850    -0.0000     1.1260 ca         1 77C      -0.129000
      8 C02          4.2410    -0.0020    -0.0970 ca         1 77C      -0.134000
      9 C03          3.5300    -0.0030    -1.2790 ca         1 77C       0.139900
     10 C04          2.1330    -0.0010    -1.2480 ca         1 77C       0.180400
     11 C05          1.4690     0.0000     0.0000 ca         1 77C      -0.182600
     12 C06          2.2070     0.0000     1.1830 ca         1 77C       0.089400
     13 N07          1.3950    -0.0020    -2.3860 nc         1 77C      -0.639100
     14 C08          0.0970    -0.0080    -2.3560 cd         1 77C       0.566900
     15 N09         -0.6240    -0.0060    -1.2010 n          1 77C      -0.272500
     16 O11         -0.6320     0.0010     1.0400 o          1 77C      -0.591500
     17 C12         -2.0230    -0.0120    -1.2570 ca         1 77C      -0.069700
     18 N14          0.0860     0.7840    -4.6500 nu         1 77C      -0.829900
     19 C16         -2.7320     1.1820    -1.2810 ca         1 77C       0.391200
     20 N17         -4.0490     1.1820    -1.3330 nb         1 77C      -0.698000
     21 C18         -4.7420     0.0600    -1.3650 ca         1 77C       0.363200
     22 C19         -4.1070    -1.1680    -1.3510 ca         1 77C      -0.240300
     23 C23         -0.6260     2.6890    -7.7280 ca         1 77C       0.748200
     24 N24         -1.9350     2.4710    -7.7870 nb         1 77C      -0.871000
     25 C25         -2.5470     1.7400    -6.8670 ca         1 77C       0.990900
     26 N26         -1.8960     1.1980    -5.8480 nb         1 77C      -0.840000
     27 N27         -3.9090     1.5410    -6.9700 nv         1 77C      -1.015500
     28 N28          0.0030     3.4530    -8.6910 nv         1 77C      -0.992500
     29 C29          1.5240     2.3340    -6.5580 cg         1 77C       0.248800
     30 N30          2.6470     2.4790    -6.4700 n1         1 77C      -0.361800
     31 Cl3          1.3960     0.0010     2.7190 cl         1 77C      -0.059400
     32 F32          4.1830    -0.0050    -2.4630 f          1 77C      -0.118900
     33 C33         -1.6210    -1.6870    -5.4260 cx         1 77C      -0.205900
     34 C34         -0.0970    -1.8020    -5.4940 cx         1 77C      -0.205900
     35 H131        -1.6350     0.4090    -3.5200 h1         1 77C       0.120700
     36 H151        -0.1840    -1.5220    -5.0720 hc         1 77C       0.179700
     37 H201        -2.6330    -1.6270    -0.2920 ha         1 77C       0.188000
     38 H011         4.2710    -0.1390     1.9530 ha         1 77C       0.155000
     39 H021         5.3080    -0.1870    -0.1360 ha         1 77C       0.155000
     40 H141         0.8380     0.1390    -4.7850 hn         1 77C       0.440800
     41 H161        -2.6890     2.2610    -1.3700 h4         1 77C       0.067100
     42 H181        -5.8160     0.1700    -1.4620 h4         1 77C       0.024100
     43 H191        -5.0120    -1.7500    -1.4810 ha         1 77C       0.164000
     44 H272        -4.5240     2.2740    -6.6770 hn         1 77C       0.442800
     45 H271        -4.1170     0.9020    -7.7110 hn         1 77C       0.442800
     46 H281         0.9980     3.5590    -8.7220 hn         1 77C       0.485800
     47 H282        -0.8280     3.6520    -9.2110 hn         1 77C       0.485800
     48 H331        -1.6000    -2.3100    -6.3110 hc         1 77C       0.097700
     49 H332        -2.1700    -0.8080    -5.7410 hc         1 77C       0.097700
     50 H342         0.5340    -0.9560    -5.7390 hc         1 77C       0.097700
     51 H341        -0.3720    -2.4750    -6.2970 hc         1 77C       0.097700
@<TRIPOS>BOND
     1    28    23 1   
     2    24    23 ar  
     3    24    25 ar  
     4    27    25 1   
     5    23     6 ar  
     6    25    26 ar  
     7     6    29 1   
     8     6     5 ar  
     9    26     5 ar  
    10    29    30 3   
    11     5    18 1   
    12    20    21 ar  
    13    20    19 ar  
    14    21    22 ar  
    15    18     2 1   
    16     3     2 1   
    17     3    33 1   
    18     3    34 1   
    19    19    17 ar  
    20     2    14 1   
    21    22     4 ar  
    22    17     4 ar  
    23    17    15 1   
    24    33    34 1   
    25    14    15 1   
    26    14    13 2   
    27    15     1 1   
    28    13    10 1   
    29     1    16 2   
    30     1    11 1   
    31    10    11 ar  
    32    10     9 ar  
    33    32     9 1   
    34    11    12 ar  
    35     9     8 ar  
    36    12     7 ar  
    37    12    31 1   
    38     8     7 ar  
    39     2    35 1   
    40     3    36 1   
    41     4    37 1   
    42     7    38 1   
    43     8    39 1   
    44    18    40 1   
    45    19    41 1   
    46    21    42 1   
    47    22    43 1   
    48    27    44 1   
    49    27    45 1   
    50    28    46 1   
    51    28    47 1   
    52    33    48 1   
    53    33    49 1   
    54    34    50 1   
    55    34    51 1   
@<TRIPOS>SUBSTRUCTURE
     1 77C         1 TEMP              0 ****  ****    0 ROOT
