@<TRIPOS>MOLECULE
77C
   51    55     1     0     0
SMALL
bcc


@<TRIPOS>ATOM
      1 C10          0.0000     0.0000     0.0000 c          1 77C       0.620100
      2 C13         -0.6490    -0.0140    -3.6650 c3         1 77C       0.035200
      3 C15         -0.7790    -1.4520    -4.1700 cx         1 77C      -0.066700
      4 C20         -2.7250    -1.2150    -1.2890 ca         1 77C      -0.049000
      5 C21         -0.5840     1.3580    -5.7120 ca         1 77C       0.596200
      6 C22          0.1110     2.1270    -6.6650 ca         1 77C      -0.342600
      7 C01          3.5850    -0.0000     1.1260 ca         1 77C      -0.109000
      8 C02          4.2410    -0.0020    -0.0970 ca         1 77C      -0.099000
      9 C03          3.5300    -0.0030    -1.2790 ca         1 77C       0.110900
     10 C04          2.1330    -0.0010    -1.2480 ca         1 77C       0.144400
     11 C05          1.4690     0.0000     0.0000 ca         1 77C      -0.197600
     12 C06          2.2070     0.0000     1.1830 ca         1 77C       0.027400
     13 N07          1.3950    -0.0020    -2.3860 nc         1 77C      -0.529100
     14 C08          0.0970    -0.0080    -2.3560 cd         1 77C       0.352900
     15 N09         -0.6240    -0.0060    -1.2010 n          1 77C       0.184500
     16 O11         -0.6320     0.0010     1.0400 o          1 77C      -0.650500
     17 C12         -2.0230    -0.0120    -1.2570 ca         1 77C      -0.192700
     18 N14          0.0860     0.7840    -4.6500 nu         1 77C      -0.503900
     19 C16         -2.7320     1.1820    -1.2810 ca         1 77C       0.377200
     20 N17         -4.0490     1.1820    -1.3330 nb         1 77C      -0.610000
     21 C18         -4.7420     0.0600    -1.3650 ca         1 77C       0.360200
     22 C19         -4.1070    -1.1680    -1.3510 ca         1 77C      -0.197300
     23 C23         -0.6260     2.6890    -7.7280 ca         1 77C       0.564200
     24 N24         -1.9350     2.4710    -7.7870 nb         1 77C      -0.761000
     25 C25         -2.5470     1.7400    -6.8670 ca         1 77C       0.791900
     26 N26         -1.8960     1.1980    -5.8480 nb         1 77C      -0.731000
     27 N27         -3.9090     1.5410    -6.9700 nv         1 77C      -0.615500
     28 N28          0.0030     3.4530    -8.6910 nv         1 77C      -0.526500
     29 C29          1.5240     2.3340    -6.5580 cg         1 77C       0.243800
     30 N30          2.6470     2.4790    -6.4700 n1         1 77C      -0.377800
     31 Cl3          1.3960     0.0010     2.7190 cl         1 77C       0.038600
     32 F32          4.1830    -0.0050    -2.4630 f          1 77C      -0.114900
     33 C33         -1.6210    -1.6870    -5.4260 cx         1 77C      -0.054900
     34 C34         -0.0970    -1.8020    -5.4940 cx         1 77C      -0.054900
     35 H131        -1.6350     0.4090    -3.5200 h1         1 77C       0.082700
     36 H151        -0.1840    -1.5220    -5.0720 hc         1 77C      -0.074300
     37 H201        -2.6330    -1.6270    -0.2920 ha         1 77C       0.158000
     38 H011         4.2710    -0.1390     1.9530 ha         1 77C       0.123000
     39 H021         5.3080    -0.1870    -0.1360 ha         1 77C       0.121000
     40 H141         0.8380     0.1390    -4.7850 hn         1 77C       0.325800
     41 H161        -2.6890     2.2610    -1.3700 h4         1 77C       0.030100
     42 H181        -5.8160     0.1700    -1.4620 h4         1 77C      -0.015900
     43 H191        -5.0120    -1.7500    -1.4810 ha         1 77C       0.137000
     44 H272        -4.5240     2.2740    -6.6770 hn         1 77C       0.281300
     45 H271        -4.1170     0.9020    -7.7110 hn         1 77C       0.281300
     46 H281         0.9980     3.5590    -8.7220 hn         1 77C       0.318800
     47 H282        -0.8280     3.6520    -9.2110 hn         1 77C       0.318800
     48 H331        -1.6000    -2.3100    -6.3110 hc         1 77C       0.062950
     49 H332        -2.1700    -0.8080    -5.7410 hc         1 77C       0.062950
     50 H342         0.5340    -0.9560    -5.7390 hc         1 77C       0.062950
     51 H341        -0.3720    -2.4750    -6.2970 hc         1 77C       0.062950
@<TRIPOS>BOND
     1     1    11 1   
     2     1    15 1   
     3     1    16 2   
     4     2     3 1   
     5     2    14 1   
     6     2    18 1   
     7     2    35 1   
     8     3    33 1   
     9     3    34 1   
    10     3    36 1   
    11     4    17 ar  
    12     4    22 ar  
    13     4    37 1   
    14     5     6 ar  
    15     5    18 1   
    16     5    26 ar  
    17     6    23 ar  
    18     6    29 1   
    19     7     8 ar  
    20     7    12 ar  
    21     7    38 1   
    22     8     9 ar  
    23     8    39 1   
    24     9    10 ar  
    25     9    32 1   
    26    10    11 ar  
    27    10    13 1   
    28    11    12 ar  
    29    12    31 1   
    30    13    14 2   
    31    14    15 1   
    32    15    17 1   
    33    17    19 ar  
    34    18    40 1   
    35    19    20 ar  
    36    19    41 1   
    37    20    21 ar  
    38    21    22 ar  
    39    21    42 1   
    40    22    43 1   
    41    23    24 ar  
    42    23    28 1   
    43    24    25 ar  
    44    25    26 ar  
    45    25    27 1   
    46    27    44 1   
    47    27    45 1   
    48    28    46 1   
    49    28    47 1   
    50    29    30 3   
    51    33    34 1   
    52    33    48 1   
    53    33    49 1   
    54    34    50 1   
    55    34    51 1   
@<TRIPOS>SUBSTRUCTURE
     1 77C         1 TEMP              0 ****  ****    0 ROOT
