@<TRIPOS>MOLECULE
77D
   57    60     1     0     0
SMALL
bcc


@<TRIPOS>ATOM
      1 N01          0.0000     0.0000     0.0000 ns         1 77D      -0.188900
      2 C02          1.4550     0.0000     0.0000 c3         1 77D       0.036000
      3 C03          2.0540     0.0000     1.4070 c3         1 77D      -0.091000
      4 C04          3.5320    -0.3900     1.3310 c3         1 77D       0.005900
      5 C05          1.9270     1.3970     2.0150 c3         1 77D       0.005900
      6 C06          1.3070    -1.0070     2.2850 c3         1 77D       0.040900
      7 C07          1.0440    -2.2790     1.5040 cc         1 77D       0.004700
      8 C08          1.6820    -3.5000     1.7270 cc         1 77D      -0.283600
      9 C09          2.6910    -3.6890     2.7750 c          1 77D       0.616700
     10 N10          3.9940    -3.4760     2.5020 ns         1 77D      -0.200900
     11 C11          5.0020    -3.6650     3.5480 c3         1 77D       0.014700
     12 C12          5.4070    -5.1400     3.6060 c3         1 77D       0.126800
     13 N13          6.4330    -5.3270     4.6400 n7         1 77D      -0.566200
     14 C14          7.6440    -4.5550     4.3320 c3         1 77D       0.142800
     15 C15          7.3060    -3.0640     4.2950 c3         1 77D      -0.017400
     16 C16          6.2350    -2.8140     3.2300 c3         1 77D      -0.038400
     17 O17          2.3530    -4.0390     3.8900 o          1 77D      -0.627100
     18 C18          1.2830    -4.5130     0.8820 cd         1 77D       0.131500
     19 N19          1.7720    -5.7990     0.9120 nu         1 77D      -0.143000
     20 C20          1.3900    -6.7170    -0.0720 ca         1 77D      -0.046400
     21 C21          1.0870    -8.0290     0.2770 ca         1 77D       0.090900
     22 F22          1.1630    -8.4200     1.5690 f          1 77D      -0.118900
     23 C23          0.7090    -8.9320    -0.6990 ca         1 77D      -0.093000
     24 C24          0.6310    -8.5320    -2.0210 ca         1 77D       0.198900
     25 I25          0.0560    -9.9040    -3.4960 i          1 77D      -0.261900
     26 C26          0.9300    -7.2270    -2.3690 ca         1 77D      -0.064000
     27 C27          1.3040    -6.3180    -1.3990 ca         1 77D      -0.112000
     28 S28          0.0960    -3.9470    -0.2060 ss         1 77D      -0.159800
     29 C29          0.1440    -2.3440     0.4920 cd         1 77D      -0.121700
     30 C30         -0.6650    -1.1750     0.0920 c          1 77D       0.684100
     31 O31         -1.8560    -1.2620    -0.1420 o          1 77D      -0.661500
     32 HN01        -0.5050     0.8620    -0.0680 hn         1 77D       0.185500
     33 H02          1.8020     0.8820    -0.5240 h1         1 77D       0.029200
     34 H02A         1.8020    -0.8820    -0.5250 h1         1 77D       0.029200
     35 H04          3.6350    -1.3050     0.7590 hc         1 77D       0.008200
     36 H04A         4.0900     0.4020     0.8480 hc         1 77D       0.008200
     37 H04B         3.9160    -0.5450     2.3320 hc         1 77D       0.008200
     38 H05          0.8790     1.6500     2.1230 hc         1 77D       0.008200
     39 H05A         2.4040     1.4130     2.9880 hc         1 77D       0.008200
     40 H05B         2.4080     2.1190     1.3660 hc         1 77D       0.008200
     41 H06          1.9420    -1.2550     3.1270 hc         1 77D       0.041200
     42 H06A         0.3500    -0.5740     2.5530 hc         1 77D       0.041200
     43 HN10         4.2780    -3.2450     1.5700 hn         1 77D       0.179500
     44 H11          4.5960    -3.3650     4.5070 h1         1 77D       0.073700
     45 H12          5.8060    -5.4410     2.6450 h1         1 77D       0.012200
     46 H12A         4.5400    -5.7420     3.8480 h1         1 77D       0.012200
     47 HN13         6.6640    -6.2980     4.7090 hn         1 77D       0.253800
     48 H14          8.3900    -4.7360     5.0960 h1         1 77D       0.006200
     49 H14A         8.0290    -4.8610     3.3660 h1         1 77D       0.006200
     50 H15          6.9310    -2.7550     5.2630 hc         1 77D       0.022700
     51 H15A         8.1970    -2.4980     4.0490 hc         1 77D       0.022700
     52 H16          6.6220    -3.0900     2.2570 hc         1 77D       0.016200
     53 H16A         5.9600    -1.7660     3.2330 hc         1 77D       0.016200
     54 HN19         2.3960    -6.0800     1.6420 hn         1 77D       0.298800
     55 H23          0.4740    -9.9540    -0.4280 ha         1 77D       0.136000
     56 H26          0.8650    -6.9160    -3.4050 ha         1 77D       0.124000
     57 H27          1.5380    -5.2970    -1.6750 ha         1 77D       0.139000
@<TRIPOS>BOND
     1     1     2 1   
     2     1    30 1   
     3     1    32 1   
     4     2     3 1   
     5     2    33 1   
     6     2    34 1   
     7     3     4 1   
     8     3     5 1   
     9     3     6 1   
    10     4    35 1   
    11     4    36 1   
    12     4    37 1   
    13     5    38 1   
    14     5    39 1   
    15     5    40 1   
    16     6     7 1   
    17     6    41 1   
    18     6    42 1   
    19     7     8 1   
    20     7    29 2   
    21     8     9 1   
    22     8    18 2   
    23     9    10 1   
    24     9    17 2   
    25    10    11 1   
    26    10    43 1   
    27    11    12 1   
    28    11    16 1   
    29    11    44 1   
    30    12    13 1   
    31    12    45 1   
    32    12    46 1   
    33    13    14 1   
    34    13    47 1   
    35    14    15 1   
    36    14    48 1   
    37    14    49 1   
    38    15    16 1   
    39    15    50 1   
    40    15    51 1   
    41    16    52 1   
    42    16    53 1   
    43    18    19 1   
    44    18    28 1   
    45    19    20 1   
    46    19    54 1   
    47    20    21 ar  
    48    20    27 ar  
    49    21    22 1   
    50    21    23 ar  
    51    23    24 ar  
    52    23    55 1   
    53    24    25 1   
    54    24    26 ar  
    55    26    27 ar  
    56    26    56 1   
    57    27    57 1   
    58    28    29 1   
    59    29    30 1   
    60    30    31 2   
@<TRIPOS>SUBSTRUCTURE
     1 77D         1 TEMP              0 ****  ****    0 ROOT
