@<TRIPOS>MOLECULE
molecule
   57    60     1     0     0
SMALL
bcc


@<TRIPOS>ATOM
      1 N01          0.0000     0.0000     0.0000 ns         1 77D      -0.578900
      2 C02          1.4550     0.0000     0.0000 c3         1 77D       0.112000
      3 C03          2.0540     0.0000     1.4070 c3         1 77D      -0.091000
      4 C04          3.5320    -0.3900     1.3310 c3         1 77D      -0.083100
      5 C05          1.9270     1.3970     2.0150 c3         1 77D      -0.083100
      6 C06          1.3070    -1.0070     2.2850 c3         1 77D      -0.010100
      7 C07          1.0440    -2.2790     1.5040 cc         1 77D      -0.001300
      8 C08          1.6820    -3.5000     1.7270 cc         1 77D      -0.269600
      9 C09          2.6910    -3.6890     2.7750 c          1 77D       0.687700
     10 N10          3.9940    -3.4760     2.5020 ns         1 77D      -0.583900
     11 C11          5.0020    -3.6650     3.5480 c3         1 77D       0.114700
     12 C12          5.4070    -5.1400     3.6060 c3         1 77D       0.142800
     13 N13          6.4330    -5.3270     4.6400 n7         1 77D      -0.812200
     14 C14          7.6440    -4.5550     4.3320 c3         1 77D       0.154800
     15 C15          7.3060    -3.0640     4.2950 c3         1 77D      -0.074400
     16 C16          6.2350    -2.8140     3.2300 c3         1 77D      -0.094400
     17 O17          2.3530    -4.0390     3.8900 o          1 77D      -0.589100
     18 C18          1.2830    -4.5130     0.8820 cd         1 77D       0.226500
     19 N19          1.7720    -5.7990     0.9120 nu         1 77D      -0.635000
     20 C20          1.3900    -6.7170    -0.0720 ca         1 77D       0.124600
     21 C21          1.0870    -8.0290     0.2770 ca         1 77D       0.105900
     22 F22          1.1630    -8.4200     1.5690 f          1 77D      -0.127900
     23 C23          0.7090    -8.9320    -0.6990 ca         1 77D      -0.112000
     24 C24          0.6310    -8.5320    -2.0210 ca         1 77D       0.053900
     25 I25          0.0560    -9.9040    -3.4960 i          1 77D      -0.146900
     26 C26          0.9300    -7.2270    -2.3690 ca         1 77D      -0.083000
     27 C27          1.3040    -6.3180    -1.3990 ca         1 77D      -0.153000
     28 S28          0.0960    -3.9470    -0.2060 ss         1 77D       0.000200
     29 C29          0.1440    -2.3440     0.4920 cd         1 77D      -0.175700
     30 C30         -0.6650    -1.1750     0.0920 c          1 77D       0.753100
     31 O31         -1.8560    -1.2620    -0.1420 o          1 77D      -0.627500
     32 HN01        -0.5050     0.8620    -0.0680 hn         1 77D       0.329500
     33 H02          1.8020     0.8820    -0.5240 h1         1 77D       0.052200
     34 H02A         1.8020    -0.8820    -0.5250 h1         1 77D       0.052200
     35 H04          3.6350    -1.3050     0.7590 hc         1 77D       0.038033
     36 H04A         4.0900     0.4020     0.8480 hc         1 77D       0.038033
     37 H04B         3.9160    -0.5450     2.3320 hc         1 77D       0.038033
     38 H05          0.8790     1.6500     2.1230 hc         1 77D       0.038033
     39 H05A         2.4040     1.4130     2.9880 hc         1 77D       0.038033
     40 H05B         2.4080     2.1190     1.3660 hc         1 77D       0.038033
     41 H06          1.9420    -1.2550     3.1270 hc         1 77D       0.070700
     42 H06A         0.3500    -0.5740     2.5530 hc         1 77D       0.070700
     43 HN10         4.2780    -3.2450     1.5700 hn         1 77D       0.315500
     44 H11          4.5960    -3.3650     4.5070 h1         1 77D       0.098700
     45 H12          5.8060    -5.4410     2.6450 h1         1 77D       0.037200
     46 H12A         4.5400    -5.7420     3.8480 h1         1 77D       0.037200
     47 HN13         6.6640    -6.2980     4.7090 hn         1 77D       0.358800
     48 H14          8.3900    -4.7360     5.0960 h1         1 77D       0.032200
     49 H14A         8.0290    -4.8610     3.3660 h1         1 77D       0.032200
     50 H15          6.9310    -2.7550     5.2630 hc         1 77D       0.053700
     51 H15A         8.1970    -2.4980     4.0490 hc         1 77D       0.053700
     52 H16          6.6220    -3.0900     2.2570 hc         1 77D       0.043200
     53 H16A         5.9600    -1.7660     3.2330 hc         1 77D       0.043200
     54 HN19         2.3960    -6.0800     1.6420 hn         1 77D       0.472800
     55 H23          0.4740    -9.9540    -0.4280 ha         1 77D       0.163000
     56 H26          0.8650    -6.9160    -3.4050 ha         1 77D       0.152000
     57 H27          1.5380    -5.2970    -1.6750 ha         1 77D       0.157000
@<TRIPOS>BOND
     1     1    30 1   
     2     1     2 1   
     3     1    32 1   
     4     2     3 1   
     5     2    33 1   
     6     2    34 1   
     7     5     3 1   
     8     3     4 1   
     9     3     6 1   
    10     4    35 1   
    11     4    36 1   
    12     4    37 1   
    13     5    38 1   
    14     5    39 1   
    15     5    40 1   
    16     7     6 1   
    17     6    41 1   
    18     6    42 1   
    19    29     7 2   
    20     7     8 1   
    21    18     8 2   
    22     8     9 1   
    23     9    17 2   
    24     9    10 1   
    25    10    11 1   
    26    10    43 1   
    27    16    11 1   
    28    11    12 1   
    29    11    44 1   
    30    12    13 1   
    31    12    45 1   
    32    12    46 1   
    33    14    13 1   
    34    13    47 1   
    35    15    14 1   
    36    14    48 1   
    37    14    49 1   
    38    16    15 1   
    39    15    50 1   
    40    15    51 1   
    41    16    52 1   
    42    16    53 1   
    43    28    18 1   
    44    18    19 1   
    45    20    19 1   
    46    19    54 1   
    47    27    20 ar  
    48    21    20 ar  
    49    23    21 ar  
    50    21    22 1   
    51    24    23 ar  
    52    23    55 1   
    53    25    24 1   
    54    24    26 ar  
    55    26    27 ar  
    56    26    56 1   
    57    27    57 1   
    58    28    29 1   
    59    30    29 1   
    60    31    30 2   
@<TRIPOS>SUBSTRUCTURE
     1 77D         1 TEMP              0 ****  ****    0 ROOT
