@<TRIPOS>MOLECULE
77E
   42    42     1     0     0
SMALL
bcc


@<TRIPOS>ATOM
      1 O7           0.0000     0.0000     0.0000 o          1 77E      -0.715167
      2 P1           1.6100     0.0000     0.0000 p5         1 77E       0.674900
      3 O5           2.1470     0.0000     1.5180 o          1 77E      -0.715167
      4 O6           2.1020    -1.2090    -0.6970 o          1 77E      -0.715167
      5 O4           2.1470     1.3140    -0.7590 os         1 77E      -0.472200
      6 C17          1.9290     1.5520    -2.1520 c3         1 77E       0.319700
      7 C16          2.5580     2.8650    -2.5420 ca         1 77E      -0.135600
      8 C15          3.2200     3.6310    -1.5990 ca         1 77E       0.426200
      9 N3           3.7720     4.7810    -1.9300 nb         1 77E      -0.584000
     10 C13          3.7220     5.2470    -3.1620 ca         1 77E       0.292600
     11 C14          4.3670     6.5710    -3.4850 c3         1 77E      -0.023400
     12 C12          3.0770     4.5360    -4.1620 ca         1 77E      -0.023200
     13 O3           3.0270     5.0210    -5.4300 oh         1 77E      -0.514100
     14 C11          2.4860     3.3150    -3.8500 ca         1 77E      -0.144300
     15 C5           1.7750     2.5090    -4.9050 c3         1 77E       0.032900
     16 C6           2.7690     1.5590    -5.5770 c3         1 77E      -0.042400
     17 C7           2.0470     0.7400    -6.6490 c3         1 77E      -0.073500
     18 C8           3.0100    -0.2960    -7.2330 c3         1 77E      -0.026400
     19 C9           2.2560    -1.1960    -8.2150 c3         1 77E      -0.150400
     20 C10          3.2040    -2.2160    -8.7900 c          1 77E       0.980600
     21 O2           2.7600    -3.1180    -9.6810 o          1 77E      -0.883300
     22 O1           4.3630    -2.2230    -8.4500 o          1 77E      -0.883300
     23 N2           1.5830     1.6340    -7.7180 nz         1 77E      -0.027600
     24 H3           2.3760     0.7520    -2.7290 h1         1 77E      -0.007800
     25 H4           0.8640     1.5890    -2.3490 h1         1 77E      -0.007800
     26 H5           3.2830     3.2810    -0.5760 h4         1 77E       0.044100
     27 H6           4.8890     6.9410    -2.6110 hc         1 77E      -0.001300
     28 H7           3.6040     7.2820    -3.7780 hc         1 77E      -0.001300
     29 H8           5.0710     6.4410    -4.2980 hc         1 77E      -0.001300
     30 H9           2.3610     5.6860    -5.4860 ho         1 77E       0.384000
     31 H10          0.9800     1.9340    -4.4460 hc         1 77E       0.012700
     32 H11          1.3550     3.1760    -5.6480 hc         1 77E       0.012700
     33 H12          3.1880     0.8910    -4.8340 hc         1 77E       0.059700
     34 H13          3.5640     2.1340    -6.0360 hc         1 77E       0.059700
     35 H14          1.1980     0.2340    -6.2070 hx         1 77E       0.091700
     36 H15          3.8140     0.2110    -7.7520 hc         1 77E       0.057700
     37 H16          3.4210    -0.8990    -6.4320 hc         1 77E       0.057700
     38 H17          1.8450    -0.5930    -9.0160 hc         1 77E      -0.000300
     39 H18          1.4520    -1.7030    -7.6960 hc         1 77E      -0.000300
     40 H20          2.0700     1.4220    -8.5660 hn         1 77E       0.213133
     41 H21          0.6000     1.5050    -7.8580 hn         1 77E       0.213133
     42 H23          1.7610     2.5840    -7.4590 hn         1 77E       0.213133
@<TRIPOS>BOND
     1     1     2 1   
     2     2     3 1   
     3     2     4 1   
     4     2     5 1   
     5     5     6 1   
     6     6     7 1   
     7     6    24 1   
     8     6    25 1   
     9     7     8 ar  
    10     7    14 ar  
    11     8     9 ar  
    12     8    26 1   
    13     9    10 ar  
    14    10    11 1   
    15    10    12 ar  
    16    11    27 1   
    17    11    28 1   
    18    11    29 1   
    19    12    13 1   
    20    12    14 ar  
    21    13    30 1   
    22    14    15 1   
    23    15    16 1   
    24    15    31 1   
    25    15    32 1   
    26    16    17 1   
    27    16    33 1   
    28    16    34 1   
    29    17    18 1   
    30    17    23 1   
    31    17    35 1   
    32    18    19 1   
    33    18    36 1   
    34    18    37 1   
    35    19    20 1   
    36    19    38 1   
    37    19    39 1   
    38    20    21 1   
    39    20    22 1   
    40    23    40 1   
    41    23    41 1   
    42    23    42 1   
@<TRIPOS>SUBSTRUCTURE
     1 77E         1 TEMP              0 ****  ****    0 ROOT
