@<TRIPOS>MOLECULE
77F
   78    81     1     0     0
SMALL
bcc


@<TRIPOS>ATOM
      1 C21          0.0000     0.0000     0.0000 c          1 77F       0.594700
      2 O22          1.2150     0.0000     0.0000 o          1 77F      -0.628100
      3 C22         -0.7410     0.0000     1.2800 ca         1 77F      -0.134600
      4 C27         -0.0470    -0.0060     2.4900 ca         1 77F      -0.069000
      5 C26         -0.7460     0.0000     3.6840 ca         1 77F       0.115100
      6 C25         -2.1350    -0.0000     3.6770 ca         1 77F      -0.122000
      7 C24         -2.8240     0.0000     2.4780 ca         1 77F      -0.089000
      8 C23         -2.1360     0.0000     1.2820 ca         1 77F      -0.107000
      9 O27         -0.0740     0.0010     4.8660 oh         1 77F      -0.497100
     10 C11          0.2270     0.5840    -9.9650 c3         1 77F      -0.021400
     11 N11         -0.8070     1.4170    -5.8400 n3         1 77F      -0.518500
     12 C12         -1.7560     0.6650    -6.6650 c3         1 77F       0.230800
     13 C13         -1.0220     0.0620    -7.8650 c3         1 77F      -0.074700
     14 C14         -1.9840    -0.8260    -8.6580 c3         1 77F      -0.028400
     15 C15         -0.5070     1.1870    -8.7650 c3         1 77F      -0.028400
     16 C17         -0.8160     0.6110    -3.5320 c3         1 77F       0.143100
     17 C18         -0.7350    -0.3040   -10.7570 c3         1 77F      -0.025400
     18 O18         -1.9540    -0.2260    -3.7530 oh         1 77F      -0.579800
     19 C19          0.0600     0.0010    -2.4360 c3         1 77F      -0.000300
     20 C20         -1.2500    -1.4280    -9.8580 c3         1 77F      -0.021400
     21 N20         -0.6730     0.0010    -1.1680 ns         1 77F      -0.198900
     22 C32          0.4240    -1.4360    -2.8150 c3         1 77F       0.013900
     23 C33          0.9060    -2.6570    -0.6830 ca         1 77F      -0.093000
     24 C34          1.7870    -3.1690     0.2500 ca         1 77F      -0.091000
     25 C35          3.1500    -3.0210     0.0670 ca         1 77F      -0.099000
     26 C36          3.6290    -2.3610    -1.0480 ca         1 77F      -0.091000
     27 C37          2.7480    -1.8470    -1.9810 ca         1 77F      -0.093000
     28 C38          1.3860    -1.9960    -1.7980 ca         1 77F      -0.081300
     29 S8          -0.6380     3.0510    -6.0560 sy         1 77F       1.051200
     30 O9          -1.0660     3.3280    -7.3810 o          1 77F      -0.587300
     31 O10          0.6550     3.3870    -5.5710 o          1 77F      -0.587300
     32 C5          -1.7930     3.8400    -4.9850 ca         1 77F      -0.208500
     33 C4          -1.4200     4.1780    -3.6960 ca         1 77F       0.043500
     34 C6          -3.0700     4.1210    -5.4330 ca         1 77F       0.043500
     35 C3          -2.3230     4.7970    -2.8540 ca         1 77F      -0.211000
     36 C7          -3.9790     4.7350    -4.5930 ca         1 77F      -0.211000
     37 C2          -3.6050     5.0800    -3.3030 ca         1 77F       0.201100
     38 O1          -4.4960     5.6890    -2.4770 os         1 77F      -0.305900
     39 C1          -5.7990     5.9500    -3.0050 c3         1 77F       0.245700
     40 H27          1.0360    -0.0060     2.4940 ha         1 77F       0.141000
     41 H25         -2.6800     0.0020     4.6130 ha         1 77F       0.114000
     42 H24         -3.9070     0.0000     2.4780 ha         1 77F       0.105000
     43 H23         -2.6790     0.0000     0.3450 ha         1 77F       0.099000
     44 HO27         0.0030     0.8850     5.1840 ho         1 77F       0.404000
     45 H11A         1.0600    -0.0120    -9.6140 hc         1 77F       0.011450
     46 H12         -2.5370     1.3290    -7.0150 h1         1 77F       0.027200
     47 H12A        -2.1960    -0.1300    -6.0750 h1         1 77F       0.027200
     48 H13         -0.1850    -0.5330    -7.5210 hc         1 77F       0.031700
     49 H14         -2.8180    -0.2300    -9.0090 hc         1 77F       0.024450
     50 H14A        -2.3460    -1.6230    -8.0200 hc         1 77F       0.024450
     51 H15          0.1760     1.8130    -8.2030 hc         1 77F       0.024450
     52 H15A        -1.3430     1.7800    -9.1150 hc         1 77F       0.024450
     53 H17         -1.1460     1.5950    -3.2240 h1         1 77F       0.009700
     54 H18         -1.5710     0.2910   -11.1040 hc         1 77F       0.011700
     55 H18A        -0.2130    -0.7320   -11.6050 hc         1 77F       0.011700
     56 HO18        -2.7010     0.1360    -3.3060 ho         1 77F       0.386000
     57 H19          0.9650     0.5860    -2.3300 h1         1 77F       0.069700
     58 H20         -0.4140    -2.0210    -9.5070 hc         1 77F       0.011450
     59 H20A        -1.9330    -2.0540   -10.4190 hc         1 77F       0.011450
     60 HN20        -1.6740     0.0310    -1.1680 hn         1 77F       0.174500
     61 H32         -0.4740    -2.0430    -2.8350 hc         1 77F       0.031700
     62 H32A         0.8870    -1.4450    -3.7940 hc         1 77F       0.031700
     63 H33         -0.1620    -2.7730    -0.5400 ha         1 77F       0.099000
     64 H34          1.4110    -3.6870     1.1240 ha         1 77F       0.098500
     65 H35          3.8420    -3.4230     0.7980 ha         1 77F       0.098000
     66 H36          4.6970    -2.2440    -1.1920 ha         1 77F       0.098500
     67 H37          3.1240    -1.3290    -2.8550 ha         1 77F       0.099000
     68 H4          -0.4180     3.9570    -3.3460 ha         1 77F       0.123500
     69 H6          -3.3600     3.8510    -6.4420 ha         1 77F       0.123500
     70 H3          -2.0300     5.0630    -1.8460 ha         1 77F       0.126000
     71 H7          -4.9800     4.9550    -4.9450 ha         1 77F       0.126000
     72 H1          -5.7150     6.5940    -3.8720 h1         1 77F       0.000367
     73 H1A         -6.4040     6.4370    -2.2500 h1         1 77F       0.000367
     74 H1B         -6.2650     5.0150    -3.2930 h1         1 77F       0.000367
     75 C16         -0.0080     0.7250    -4.8260 c3         1 77F       0.210800
     76 H11          0.5890     1.3810   -10.6030 hc         1 77F       0.011450
     77 H16          0.2460    -0.2660    -5.1820 h1         1 77F       0.049200
     78 H16A         0.8990     1.2850    -4.6380 h1         1 77F       0.049200
@<TRIPOS>BOND
     1     1     2 2   
     2     1     3 1   
     3     1    21 1   
     4     3     4 ar  
     5     3     8 ar  
     6     4     5 ar  
     7     4    40 1   
     8     5     6 ar  
     9     5     9 1   
    10     6     7 ar  
    11     6    41 1   
    12     7     8 ar  
    13     7    42 1   
    14     8    43 1   
    15     9    44 1   
    16    10    15 1   
    17    10    17 1   
    18    10    45 1   
    19    10    76 1   
    20    11    12 1   
    21    11    29 1   
    22    11    75 1   
    23    12    13 1   
    24    12    46 1   
    25    12    47 1   
    26    13    14 1   
    27    13    15 1   
    28    13    48 1   
    29    14    20 1   
    30    14    49 1   
    31    14    50 1   
    32    15    51 1   
    33    15    52 1   
    34    16    18 1   
    35    16    19 1   
    36    16    53 1   
    37    16    75 1   
    38    17    20 1   
    39    17    54 1   
    40    17    55 1   
    41    18    56 1   
    42    19    21 1   
    43    19    22 1   
    44    19    57 1   
    45    20    58 1   
    46    20    59 1   
    47    21    60 1   
    48    22    28 1   
    49    22    61 1   
    50    22    62 1   
    51    23    24 ar  
    52    23    28 ar  
    53    23    63 1   
    54    24    25 ar  
    55    24    64 1   
    56    25    26 ar  
    57    25    65 1   
    58    26    27 ar  
    59    26    66 1   
    60    27    28 ar  
    61    27    67 1   
    62    29    30 2   
    63    29    31 2   
    64    29    32 1   
    65    32    33 ar  
    66    32    34 ar  
    67    33    35 ar  
    68    33    68 1   
    69    34    36 ar  
    70    34    69 1   
    71    35    37 ar  
    72    35    70 1   
    73    36    37 ar  
    74    36    71 1   
    75    37    38 1   
    76    38    39 1   
    77    39    72 1   
    78    39    73 1   
    79    39    74 1   
    80    75    77 1   
    81    75    78 1   
@<TRIPOS>SUBSTRUCTURE
     1 77F         1 TEMP              0 ****  ****    0 ROOT
