@<TRIPOS>MOLECULE
molecule
   56    59     1     0     0
SMALL
bcc


@<TRIPOS>ATOM
      1 N3           0.0000     0.0000     0.0000 nc         1 77G      -0.571100
      2 C4           0.6780    -0.0000     2.1150 ca         1 77G       0.439800
      3 C6           1.3010     0.0000     0.0000 cd         1 77G       0.426700
      4 C7           9.7850    -7.4620     3.8960 ca         1 77G       0.079100
      5 C8           7.4950    -7.9860     3.3160 ca         1 77G      -0.129000
      6 C10         -1.7220    -0.0000     1.8780 ca         1 77G       0.780200
      7 C13         10.0520    -8.8180     4.0600 ca         1 77G       0.070100
      8 C15          9.0520    -9.7510     3.8540 ca         1 77G      -0.167000
      9 C17          6.7030   -10.3440     3.2630 cp         1 77G      -0.038000
     10 C20          6.9760   -11.7000     3.4290 ca         1 77G      -0.099500
     11 C21          5.4220    -9.9350     2.8980 ca         1 77G      -0.099500
     12 C28          5.9780   -12.6320     3.2310 ca         1 77G      -0.165000
     13 C9           8.7180    -4.4990     3.7210 c          1 77G       0.717700
     14 C2           8.5020    -7.0410     3.5220 ca         1 77G      -0.271600
     15 O24         11.2970    -9.2260     4.4220 oh         1 77G      -0.523100
     16 C12          7.7710    -9.3380     3.4820 cp         1 77G      -0.033000
     17 C27          4.4300   -10.8740     2.7010 ca         1 77G      -0.165000
     18 C25          4.7060   -12.2220     2.8670 ca         1 77G       0.127900
     19 F29          3.7320   -13.1370     2.6720 f          1 77G      -0.142900
     20 N19          7.4520    -4.2530     3.3280 ns         1 77G      -0.508900
     21 C30          7.0180    -2.8770     3.0770 c3         1 77G       0.080000
     22 C32          5.5490    -2.8760     2.6480 c3         1 77G      -0.095400
     23 C33          5.0960    -1.4390     2.3850 c3         1 77G      -0.077400
     24 C31          3.6270    -1.4380     1.9550 c3         1 77G      -0.104400
     25 N5           1.7670     0.0000     1.2810 na         1 77G      -0.256000
     26 C1          -0.4510    -0.0000     1.2770 ca         1 77G      -0.160200
     27 N22         -2.8690    -0.0000     1.1040 nv         1 77G      -1.073500
     28 N14         -1.7960    -0.0000     3.2040 nb         1 77G      -0.772000
     29 C16         -0.7070    -0.0010     3.9500 ca         1 77G       0.705900
     30 N11          0.5040     0.0000     3.4320 nb         1 77G      -0.759000
     31 H1           1.9220     0.0000    -0.8870 h5         1 77G       0.079800
     32 H2           6.5010    -7.6670     3.0270 ha         1 77G       0.119000
     33 H3           9.2630   -10.8060     3.9830 ha         1 77G       0.136000
     34 H4           7.9700   -12.0230     3.7140 ha         1 77G       0.139000
     35 H5           5.2050    -8.8820     2.7680 ha         1 77G       0.139000
     36 H6           3.2850     0.5830     2.5970 h1         1 77G       0.068700
     37 H7           3.7800     0.4310     0.9060 h1         1 77G       0.068700
     38 H8           6.1900   -13.6870     3.3600 ha         1 77G       0.144000
     39 H9          11.4070    -6.6110     3.4140 ho         1 77G       0.420000
     40 H10         11.2960    -9.4670     5.3340 ho         1 77G       0.421000
     41 H11          3.4340   -10.5560     2.4160 ha         1 77G       0.144000
     42 H12          6.8530    -5.0110     3.0660 hn         1 77G       0.370500
     43 H13          7.1300    -2.2920     3.9810 h1         1 77G       0.057200
     44 H14          7.6240    -2.4460     2.2890 h1         1 77G       0.057200
     45 H15          5.4370    -3.4620     1.7430 hc         1 77G       0.057200
     46 H16          4.9430    -3.3080     3.4350 hc         1 77G       0.057200
     47 H17          5.2080    -0.8540     3.2890 hc         1 77G       0.049200
     48 H18          5.7020    -1.0070     1.5980 hc         1 77G       0.049200
     49 H19          3.5150    -2.0230     1.0500 hc         1 77G       0.060700
     50 H20          3.0200    -1.8710     2.7410 hc         1 77G       0.060700
     51 H21         -3.2920     0.8670     0.8370 hn         1 77G       0.445800
     52 H22         -3.2930    -0.8670     0.8370 hn         1 77G       0.445800
     53 H23         -0.8130    -0.0000     5.0280 h5         1 77G       0.063100
     54 C26          3.1730    -0.0010     1.6920 c3         1 77G       0.052300
     55 O23         10.7660    -6.5460     4.1020 oh         1 77G      -0.512100
     56 O18          9.7710    -4.0040     4.0720 o          1 77G      -0.408100
@<TRIPOS>BOND
     1    55     4 1
     2    21    20 1
     3    21    22 1
     4    20    13 1
     5    15     7 1
     6     4     7 ar
     7     4    14 ar
     8    28    29 ar
     9    28     6 ar
    10    29    30 ar
    11    13    14 1
    12    13    56 2
    13     7     8 ar
    14    27     6 1
    15     6    26 ar
    16    30     2 ar
    17    24    23 1
    18    24    54 1
    19    14     5 ar
    20     2    26 ar
    21     2    25 1
    22    26     1 1
    23    23    22 1
    24     8    16 ar
    25    25    54 1
    26    25     3 1
    27     1     3 2
    28     5    16 ar
    29    16     9 1
    30    11     9 ar
    31    11    17 ar
    32     9    10 ar
    33    17    18 ar
    34    10    12 ar
    35    18    12 ar
    36    18    19 1
    37     3    31 1
    38     5    32 1
    39     8    33 1
    40    10    34 1
    41    11    35 1
    42    54    36 1
    43    54    37 1
    44    12    38 1
    45    55    39 1
    46    15    40 1
    47    17    41 1
    48    20    42 1
    49    21    43 1
    50    21    44 1
    51    22    45 1
    52    22    46 1
    53    23    47 1
    54    23    48 1
    55    24    49 1
    56    24    50 1
    57    27    51 1
    58    27    52 1
    59    29    53 1
@<TRIPOS>SUBSTRUCTURE
     1 77G         1 TEMP              0 ****  ****    0 ROOT
