@<TRIPOS>MOLECULE
molecule
   56    59     1     0     0
SMALL
bcc


@<TRIPOS>ATOM
      1 N3           0.0000     0.0000     0.0000 nc         1 77H      -0.584100
      2 C4          -1.7140     0.0010     1.8730 ca         1 77H       0.523200
      3 C5           0.6810     0.0000     2.1170 ca         1 77H       0.449800
      4 C7           1.3010     0.0000     0.0000 cd         1 77H       0.434700
      5 C8          10.4810    -6.1390     4.3680 ca         1 77H       0.158100
      6 C13         10.8900    -7.4480     4.6060 ca         1 77H       0.059100
      7 C17          7.7380    -9.3690     3.8710 cp         1 77H      -0.051000
      8 C20          6.4280    -9.1230     3.4630 ca         1 77H      -0.095000
      9 C21          8.1530   -10.6770     4.1120 ca         1 77H      -0.095000
     10 C24          5.9660   -11.4720     3.5400 ca         1 77H       0.137900
     11 C26          5.5490   -10.1730     3.2990 ca         1 77H      -0.162500
     12 C1          -0.4520     0.0000     1.2790 ca         1 77H      -0.164200
     13 C2           9.1650    -5.8810     3.9630 ca         1 77H      -0.153600
     14 N6           1.7690     0.0000     1.2800 na         1 77H      -0.257000
     15 C9           8.2700    -6.9390     3.8010 ca         1 77H      -0.095000
     16 N10         -1.7960     0.0010     3.1930 nb         1 77H      -0.751000
     17 C11          8.7270    -4.4960     3.7090 c          1 77H       0.672700
     18 C12          8.6880    -8.2420     4.0420 cp         1 77H      -0.040000
     19 C14         -0.7060     0.0020     3.9500 ca         1 77H       0.940900
     20 N15          0.5120     0.0010     3.4320 nb         1 77H      -0.760000
     21 C16         10.0000    -8.4930     4.4450 ca         1 77H      -0.121000
     22 O18          9.5080    -3.5740     3.8510 o          1 77H      -0.580100
     23 N19          7.4600    -4.2500     3.3200 ns         1 77H      -0.589900
     24 O23         12.1680    -7.6990     5.0000 oh         1 77H      -0.515100
     25 C25          7.2680   -11.7220     3.9460 ca         1 77H      -0.162500
     26 F27          5.1030   -12.4990     3.3790 f          1 77H      -0.137900
     27 C29          7.0250    -2.8740     3.0670 c3         1 77H       0.115000
     28 C30          3.6310    -1.4370     1.9520 c3         1 77H      -0.104400
     29 C31          5.5550    -2.8740     2.6410 c3         1 77H      -0.100400
     30 C32          5.1010    -1.4370     2.3780 c3         1 77H      -0.076400
     31 N33         -0.8480     0.0020     5.3280 nv         1 77H      -1.055500
     32 H1          -2.6100     0.0000     1.2640 h4         1 77H       0.041100
     33 H2           1.9220     0.0000    -0.8880 h5         1 77H       0.080800
     34 H3           6.1000    -8.1070     3.2750 ha         1 77H       0.137000
     35 H4           9.1700   -10.8730     4.4290 ha         1 77H       0.137000
     36 H5           4.5310    -9.9820     2.9820 ha         1 77H       0.148500
     37 H6           3.7810     0.4300     0.8990 h1         1 77H       0.069200
     38 H7           3.2900     0.5860     2.5920 h1         1 77H       0.069200
     39 H8           7.2510    -6.7460     3.4880 ha         1 77H       0.133000
     40 H9          10.3230    -9.5110     4.6310 ha         1 77H       0.147000
     41 H10          6.8140    -5.0070     3.2130 hn         1 77H       0.310500
     42 H11         12.0080    -5.1450     3.8520 ho         1 77H       0.435000
     43 H12         12.1810    -7.8910     5.9230 ho         1 77H       0.428000
     44 H13          7.5900   -12.7390     4.1330 ha         1 77H       0.148500
     45 H14          7.6300    -2.4430     2.2780 h1         1 77H       0.055700
     46 H15          7.1400    -2.2880     3.9710 h1         1 77H       0.055700
     47 H16          3.5170    -2.0240     1.0480 hc         1 77H       0.057700
     48 H17          3.0260    -1.8680     2.7410 hc         1 77H       0.057700
     49 H18          5.4410    -3.4610     1.7380 hc         1 77H       0.047700
     50 H19          4.9500    -3.3050     3.4300 hc         1 77H       0.047700
     51 H20          5.2150    -0.8500     3.2810 hc         1 77H       0.049200
     52 H21          5.7060    -1.0060     1.5880 hc         1 77H       0.049200
     53 H22         -0.8920     0.8690     5.8260 hn         1 77H       0.444300
     54 H23         -0.8950    -0.8640     5.8270 hn         1 77H       0.444300
     55 C28          3.1760    -0.0010     1.6880 c3         1 77H       0.050300
     56 O22         11.3550    -5.1130     4.5320 oh         1 77H      -0.483100
@<TRIPOS>BOND
     1    31    19 1   
     2    16    19 ar  
     3    16     2 ar  
     4    19    20 ar  
     5     2    12 ar  
     6    20     3 ar  
     7    12     3 ar  
     8    12     1 1   
     9     3    14 1   
    10     1     4 2   
    11    14     4 1   
    12    14    55 1   
    13    56     5 1   
    14    27    23 1   
    15    27    29 1   
    16    55    28 1   
    17    23    17 1   
    18    24     6 1   
    19    28    30 1   
    20     5     6 ar  
    21     5    13 ar  
    22    17    13 1   
    23    17    22 2   
    24     6    21 ar  
    25    13    15 ar  
    26    30    29 1   
    27    21    18 ar  
    28    15    18 ar  
    29    18     7 1   
    30     8     7 ar  
    31     8    11 ar  
    32     7     9 ar  
    33    11    10 ar  
    34     9    25 ar  
    35    10    25 ar  
    36    10    26 1   
    37     2    32 1   
    38     4    33 1   
    39     8    34 1   
    40     9    35 1   
    41    11    36 1   
    42    55    37 1   
    43    55    38 1   
    44    15    39 1   
    45    21    40 1   
    46    23    41 1   
    47    56    42 1   
    48    24    43 1   
    49    25    44 1   
    50    27    45 1   
    51    27    46 1   
    52    28    47 1   
    53    28    48 1   
    54    29    49 1   
    55    29    50 1   
    56    30    51 1   
    57    30    52 1   
    58    31    53 1   
    59    31    54 1   
@<TRIPOS>SUBSTRUCTURE
     1 77H         1 TEMP              0 ****  ****    0 ROOT
