@<TRIPOS>MOLECULE
77H
   56    59     1     0     0
SMALL
bcc


@<TRIPOS>ATOM
      1 N3           0.0000     0.0000     0.0000 nc         1 77H      -0.493100
      2 C4          -1.7140     0.0010     1.8730 ca         1 77H       0.510200
      3 C5           0.6810     0.0000     2.1170 ca         1 77H       0.228800
      4 C7           1.3010     0.0000     0.0000 cd         1 77H       0.261700
      5 C8          10.4810    -6.1390     4.3680 ca         1 77H       0.175100
      6 C13         10.8900    -7.4480     4.6060 ca         1 77H       0.066100
      7 C17          7.7380    -9.3690     3.8710 cp         1 77H      -0.042000
      8 C20          6.4280    -9.1230     3.4630 ca         1 77H      -0.075500
      9 C21          8.1530   -10.6770     4.1120 ca         1 77H      -0.075500
     10 C24          5.9660   -11.4720     3.5400 ca         1 77H       0.106900
     11 C26          5.5490   -10.1730     3.2990 ca         1 77H      -0.126000
     12 C1          -0.4520     0.0000     1.2790 ca         1 77H      -0.184200
     13 C2           9.1650    -5.8810     3.9630 ca         1 77H      -0.168600
     14 N6           1.7690     0.0000     1.2800 na         1 77H       0.203000
     15 C9           8.2700    -6.9390     3.8010 ca         1 77H      -0.082000
     16 N10         -1.7960     0.0010     3.1930 nb         1 77H      -0.640000
     17 C11          8.7270    -4.4960     3.7090 c          1 77H       0.596700
     18 C12          8.6880    -8.2420     4.0420 cp         1 77H      -0.038000
     19 C14         -0.7060     0.0020     3.9500 ca         1 77H       0.710900
     20 N15          0.5120     0.0010     3.4320 nb         1 77H      -0.613000
     21 C16         10.0000    -8.4930     4.4450 ca         1 77H      -0.107000
     22 O18          9.5080    -3.5740     3.8510 o          1 77H      -0.624100
     23 N19          7.4600    -4.2500     3.3200 ns         1 77H      -0.210900
     24 O23         12.1680    -7.6990     5.0000 oh         1 77H      -0.494100
     25 C25          7.2680   -11.7220     3.9460 ca         1 77H      -0.126000
     26 F27          5.1030   -12.4990     3.3790 f          1 77H      -0.126900
     27 C29          7.0250    -2.8740     3.0670 c3         1 77H       0.053000
     28 C30          3.6310    -1.4370     1.9520 c3         1 77H      -0.049400
     29 C31          5.5550    -2.8740     2.6410 c3         1 77H      -0.042400
     30 C32          5.1010    -1.4370     2.3780 c3         1 77H      -0.016400
     31 N33         -0.8480     0.0020     5.3280 nv         1 77H      -0.635500
     32 H1          -2.6100     0.0000     1.2640 h4         1 77H      -0.009900
     33 H2           1.9220     0.0000    -0.8880 h5         1 77H       0.031800
     34 H3           6.1000    -8.1070     3.2750 ha         1 77H       0.113000
     35 H4           9.1700   -10.8730     4.4290 ha         1 77H       0.113000
     36 H5           4.5310    -9.9820     2.9820 ha         1 77H       0.119500
     37 H6           3.7810     0.4300     0.8990 h1         1 77H       0.041200
     38 H7           3.2900     0.5860     2.5920 h1         1 77H       0.041200
     39 H8           7.2510    -6.7460     3.4880 ha         1 77H       0.113000
     40 H9          10.3230    -9.5110     4.6310 ha         1 77H       0.123000
     41 H10          6.8140    -5.0070     3.2130 hn         1 77H       0.176500
     42 H11         12.0080    -5.1450     3.8520 ho         1 77H       0.412000
     43 H12         12.1810    -7.8910     5.9230 ho         1 77H       0.410000
     44 H13          7.5900   -12.7390     4.1330 ha         1 77H       0.119500
     45 H14          7.6300    -2.4430     2.2780 h1         1 77H       0.028200
     46 H15          7.1400    -2.2880     3.9710 h1         1 77H       0.028200
     47 H16          3.5170    -2.0240     1.0480 hc         1 77H       0.027700
     48 H17          3.0260    -1.8680     2.7410 hc         1 77H       0.027700
     49 H18          5.4410    -3.4610     1.7380 hc         1 77H       0.018200
     50 H19          4.9500    -3.3050     3.4300 hc         1 77H       0.018200
     51 H20          5.2150    -0.8500     3.2810 hc         1 77H       0.021700
     52 H21          5.7060    -1.0060     1.5880 hc         1 77H       0.021700
     53 H22         -0.8920     0.8690     5.8260 hn         1 77H       0.278300
     54 H23         -0.8950    -0.8640     5.8270 hn         1 77H       0.278300
     55 C28          3.1760    -0.0010     1.6880 c3         1 77H      -0.033700
     56 O22         11.3550    -5.1130     4.5320 oh         1 77H      -0.460100
@<TRIPOS>BOND
     1     1     4 2   
     2     1    12 1   
     3     2    12 ar  
     4     2    16 ar  
     5     2    32 1   
     6     3    12 ar  
     7     3    14 1   
     8     3    20 ar  
     9     4    14 1   
    10     4    33 1   
    11     5     6 ar  
    12     5    13 ar  
    13     5    56 1   
    14     6    21 ar  
    15     6    24 1   
    16     7     8 ar  
    17     7     9 ar  
    18     7    18 1   
    19     8    11 ar  
    20     8    34 1   
    21     9    25 ar  
    22     9    35 1   
    23    10    11 ar  
    24    10    25 ar  
    25    10    26 1   
    26    11    36 1   
    27    13    15 ar  
    28    13    17 1   
    29    14    55 1   
    30    15    18 ar  
    31    15    39 1   
    32    16    19 ar  
    33    17    22 2   
    34    17    23 1   
    35    18    21 ar  
    36    19    20 ar  
    37    19    31 1   
    38    21    40 1   
    39    23    27 1   
    40    23    41 1   
    41    24    43 1   
    42    25    44 1   
    43    27    29 1   
    44    27    45 1   
    45    27    46 1   
    46    28    30 1   
    47    28    47 1   
    48    28    48 1   
    49    28    55 1   
    50    29    30 1   
    51    29    49 1   
    52    29    50 1   
    53    30    51 1   
    54    30    52 1   
    55    31    53 1   
    56    31    54 1   
    57    37    55 1   
    58    38    55 1   
    59    42    56 1   
@<TRIPOS>SUBSTRUCTURE
     1 77H         1 TEMP              0 ****  ****    0 ROOT
