@<TRIPOS>MOLECULE
molecule
   33    34     1     0     0
SMALL
bcc


@<TRIPOS>ATOM
      1 C            0.0000     0.0000     0.0000 cc         1 77J       0.526800
      2 N            1.3620     0.0000     0.0000 ns         1 77J      -0.433400
      3 O            3.2600    -0.0000     1.1760 o          1 77J      -0.642500
      4 S           -0.8630    -0.0010    -1.5370 ss         1 77J      -0.208300
      5 C1          -0.0690    -0.0090     2.3130 cd         1 77J       0.267400
      6 N1          -0.6860    -0.0040     1.1240 nd         1 77J      -0.679300
      7 O1          -7.3100     0.0020    -2.0420 oh         1 77J      -0.358100
      8 C2           1.3180     0.0010     2.3690 cc         1 77J      -0.321200
      9 N2          -5.9740     0.0000    -2.5100 ns         1 77J      -0.471400
     10 O2          -5.1770     0.0020    -0.4400 o          1 77J      -0.568100
     11 C3           2.0400     0.0000     1.1670 c          1 77J       0.692700
     12 C4          -0.8630    -0.0130     3.5640 ca         1 77J      -0.067800
     13 C5          -2.2580    -0.0120     3.5080 ca         1 77J      -0.091500
     14 C6          -2.9920    -0.0150     4.6760 ca         1 77J      -0.137000
     15 C7          -2.3490    -0.0200     5.9010 ca         1 77J      -0.111000
     16 C8          -0.9670    -0.0220     5.9630 ca         1 77J      -0.137000
     17 C9          -0.2220    -0.0240     4.8010 ca         1 77J      -0.091500
     18 C10         -2.5710     0.0010    -0.9380 c3         1 77J       0.028700
     19 C11         -3.5300    -0.0000    -2.1300 c3         1 77J      -0.144400
     20 C12         -4.9520     0.0010    -1.6320 c          1 77J       0.673100
     21 HN           1.8610     0.0000    -0.8670 hn         1 77J       0.342500
     22 HO1         -7.9010     0.0010    -2.7760 ho         1 77J       0.401000
     23 H2           1.8320    -0.0010     3.3220 ha         1 77J       0.172000
     24 HN2         -5.7890    -0.0020    -3.4930 hn         1 77J       0.319500
     25 H5          -2.7620    -0.0080     2.5500 ha         1 77J       0.146500
     26 H6          -4.0740    -0.0140     4.6340 ha         1 77J       0.135000
     27 H7          -2.9300    -0.0210     6.8150 ha         1 77J       0.131000
     28 H8          -0.4690    -0.0280     6.9250 ha         1 77J       0.135000
     29 H9           0.8610    -0.0240     4.8510 ha         1 77J       0.146500
     30 H10         -2.7440    -0.8830    -0.3350 h1         1 77J       0.101700
     31 H10A        -2.7430     0.8860    -0.3380 h1         1 77J       0.101700
     32 H11         -3.3570     0.8830    -2.7330 hc         1 77J       0.070700
     33 H11A        -3.3580    -0.8860    -2.7310 hc         1 77J       0.070700
@<TRIPOS>BOND
     1     1     2 1   
     2     1     4 1   
     3     1     6 2   
     4     2    11 1   
     5     3    11 2   
     6     4    18 1   
     7     5     6 1   
     8     5     8 2   
     9     5    12 1   
    10     7     9 1   
    11     8    11 1   
    12     9    20 1   
    13    10    20 2   
    14    12    13 ar  
    15    12    17 ar  
    16    13    14 ar  
    17    14    15 ar  
    18    15    16 ar  
    19    16    17 ar  
    20    18    19 1   
    21    19    20 1   
    22     2    21 1   
    23     7    22 1   
    24     8    23 1   
    25     9    24 1   
    26    13    25 1   
    27    14    26 1   
    28    15    27 1   
    29    16    28 1   
    30    17    29 1   
    31    18    30 1   
    32    18    31 1   
    33    19    32 1   
    34    19    33 1   
@<TRIPOS>SUBSTRUCTURE
     1 77J         1 TEMP              0 ****  ****    0 ROOT
