@<TRIPOS>MOLECULE
molecule
   41    43     1     0     0
SMALL
bcc


@<TRIPOS>ATOM
      1 C4           0.0000     0.0000     0.0000 ca         1 77K      -0.094000
      2 C5           1.3950     0.0000     0.0000 ca         1 77K      -0.151600
      3 C6           2.0910     0.0000     1.2160 ca         1 77K       0.158100
      4 C7          -2.1760     0.0060     1.2060 cp         1 77K      -0.049000
      5 C8          -2.8760     0.0180     0.0020 ca         1 77K      -0.095500
      6 C10         -4.9450     0.0280     1.2100 ca         1 77K       0.134900
      7 C20          1.2220    -0.0040    -4.8600 cc         1 77K       0.281600
      8 C22         -0.1510    -0.7100    -6.3660 cd         1 77K       0.396400
      9 C24          2.1990    -0.0030    -3.7120 c3         1 77K       0.106700
     10 C1           1.3880     0.0010     2.4180 ca         1 77K       0.057100
     11 C2           0.0060    -0.0000     2.4130 ca         1 77K      -0.122000
     12 C3          -0.6920     0.0000     1.2050 cp         1 77K      -0.043000
     13 C9          -4.2560     0.0280     0.0070 ca         1 77K      -0.163000
     14 C11         -4.2530     0.0180     2.4090 ca         1 77K      -0.163000
     15 C12         -2.8730     0.0060     2.4130 ca         1 77K      -0.095500
     16 F13         -6.2970     0.0410     1.2110 f          1 77K      -0.139900
     17 O14          2.0630     0.0000     3.5990 oh         1 77K      -0.515100
     18 O15          3.4480    -0.0010     1.2230 oh         1 77K      -0.483100
     19 C16          2.1360    -0.0010    -1.2770 c          1 77K       0.670700
     20 N17          1.4640    -0.0020    -2.4450 ns         1 77K      -0.581900
     21 O18          3.3520    -0.0010    -1.2730 o          1 77K      -0.585100
     22 N19          0.6390    -1.0850    -5.3970 nc         1 77K      -0.686000
     23 N21         -0.0930     0.6340    -6.4770 na         1 77K      -0.188900
     24 C23          0.7770     1.0820    -5.5200 cd         1 77K      -0.254600
     25 C25         -0.8260     1.4590    -7.4400 c3         1 77K       0.030600
     26 H1          -0.5430     0.0000    -0.9380 ha         1 77K       0.137000
     27 H2          -2.3380     0.0170    -0.9390 ha         1 77K       0.139000
     28 H3          -0.7530    -1.3690    -6.9810 h5         1 77K       0.067100
     29 H4           2.8210    -0.8880    -3.7670 h1         1 77K       0.065200
     30 H5           2.8220     0.8810    -3.7690 h1         1 77K       0.065200
     31 H6          -0.5370    -0.0000     3.3510 ha         1 77K       0.145000
     32 H7          -4.8010     0.0370    -0.9290 ha         1 77K       0.147500
     33 H8          -4.7970     0.0180     3.3470 ha         1 77K       0.147500
     34 H9          -2.3330    -0.0020     3.3520 ha         1 77K       0.139000
     35 H10          2.0340     0.8630     3.9780 ho         1 77K       0.426000
     36 H11          3.7610    -0.8360     1.5270 ho         1 77K       0.435000
     37 H12          0.4640    -0.0400    -2.4460 hn         1 77K       0.316500
     38 H13          1.0560     2.1120    -5.3320 h4         1 77K       0.179000
     39 H14         -0.4420     1.2770    -8.4370 h1         1 77K       0.055700
     40 H15         -1.8790     1.2040    -7.4070 h1         1 77K       0.055700
     41 H16         -0.7000     2.5050    -7.1900 h1         1 77K       0.055700
@<TRIPOS>BOND
     1    18     3 1
     2     9    20 1
     3     9     7 1
     4    20    19 1
     5    17    10 1
     6     3    10 ar
     7     3     2 ar
     8    19     2 1
     9    19    21 2
    10    10    11 ar
    11     2     1 ar
    12     7    22 1
    13     7    24 2
    14    22     8 2
    15    11    12 ar
    16     1    12 ar
    17    12     4 1
    18     5     4 ar
    19     5    13 ar
    20    24    23 1
    21     4    15 ar
    22     8    23 1
    23    13     6 ar
    24    23    25 1
    25    15    14 ar
    26     6    14 ar
    27     6    16 1
    28     1    26 1
    29     5    27 1
    30     8    28 1
    31     9    29 1
    32     9    30 1
    33    11    31 1
    34    13    32 1
    35    14    33 1
    36    15    34 1
    37    17    35 1
    38    18    36 1
    39    20    37 1
    40    24    38 1
    41    25    39 1
    42    25    40 1
    43    25    41 1
@<TRIPOS>SUBSTRUCTURE
     1 77K         1 TEMP              0 ****  ****    0 ROOT
