@<TRIPOS>MOLECULE
molecule
   35    36     1     0     0
SMALL
bcc


@<TRIPOS>ATOM
      1 C4           0.0000     0.0000     0.0000 ca         1 77L      -0.093000
      2 C5           1.3960     0.0000     0.0000 ca         1 77L      -0.152600
      3 C6           2.0920     0.0000     1.2150 ca         1 77L       0.158100
      4 C7          -2.1750     0.0030     1.2070 cp         1 77L      -0.050000
      5 C8          -2.8760     0.0140     0.0020 ca         1 77L      -0.094500
      6 C10         -4.9450     0.0240     1.2110 ca         1 77L       0.136900
      7 C20          1.2060    -0.0010    -4.8780 c3         1 77L       0.119400
      8 O18          3.3520     0.0000    -1.2750 o          1 77L      -0.584100
      9 C16          2.1360     0.0000    -1.2760 c          1 77L       0.672700
     10 N17          1.4640    -0.0010    -2.4460 ns         1 77L      -0.582900
     11 C19          2.1990    -0.0000    -3.7130 c3         1 77L       0.119000
     12 O21          0.4630     1.2190    -4.8710 oh         1 77L      -0.610800
     13 O15          3.4490     0.0010     1.2210 oh         1 77L      -0.482100
     14 C1           1.3890    -0.0000     2.4170 ca         1 77L       0.057100
     15 O14          2.0640     0.0000     3.5980 oh         1 77L      -0.515100
     16 C3          -0.6910    -0.0010     1.2050 cp         1 77L      -0.041000
     17 C2           0.0070    -0.0010     2.4130 ca         1 77L      -0.122000
     18 C12         -2.8720     0.0030     2.4140 ca         1 77L      -0.094500
     19 C11         -4.2530     0.0140     2.4110 ca         1 77L      -0.163000
     20 F13         -6.2950     0.0350     1.2130 f          1 77L      -0.138900
     21 C9          -4.2550     0.0240     0.0090 ca         1 77L      -0.163000
     22 H1          -0.5430    -0.0000    -0.9370 ha         1 77L       0.137000
     23 H2          -2.3380     0.0140    -0.9380 ha         1 77L       0.138500
     24 H3           0.5270    -0.8380    -4.7730 h1         1 77L       0.030200
     25 H4           1.7470    -0.0890    -5.8120 h1         1 77L       0.030200
     26 H5           0.4630    -0.0310    -2.4480 hn         1 77L       0.317500
     27 H6           2.8220    -0.8840    -3.7690 h1         1 77L       0.063700
     28 H7           2.8210     0.8850    -3.7690 h1         1 77L       0.063700
     29 H8           0.0200     1.3220    -5.6970 ho         1 77L       0.406000
     30 H9           3.7630    -0.8340     1.5280 ho         1 77L       0.434000
     31 H10          2.0360     0.8630     3.9760 ho         1 77L       0.427000
     32 H11         -0.5350    -0.0010     3.3510 ha         1 77L       0.146000
     33 H12         -2.3320    -0.0050     3.3530 ha         1 77L       0.138500
     34 H13         -4.7950     0.0140     3.3480 ha         1 77L       0.147500
     35 H14         -4.8010     0.0320    -0.9270 ha         1 77L       0.147500
@<TRIPOS>BOND
     1    13     3 1   
     2    11    10 1   
     3    11     7 1   
     4    15    14 1   
     5    10     9 1   
     6     3    14 ar  
     7     3     2 ar  
     8    14    17 ar  
     9     9     2 1   
    10     9     8 2   
    11     2     1 ar  
    12    17    16 ar  
    13     1    16 ar  
    14     7    12 1   
    15    16     4 1   
    16     5     4 ar  
    17     5    21 ar  
    18     4    18 ar  
    19    21     6 ar  
    20    18    19 ar  
    21     6    19 ar  
    22     6    20 1   
    23     1    22 1   
    24     5    23 1   
    25     7    24 1   
    26     7    25 1   
    27    10    26 1   
    28    11    27 1   
    29    11    28 1   
    30    12    29 1   
    31    13    30 1   
    32    15    31 1   
    33    17    32 1   
    34    18    33 1   
    35    19    34 1   
    36    21    35 1   
@<TRIPOS>SUBSTRUCTURE
     1 77L         1 TEMP              0 ****  ****    0 ROOT
