@<TRIPOS>MOLECULE
77M
   52    54     1     0     0
SMALL
bcc


@<TRIPOS>ATOM
      1 C4           0.0000     0.0000     0.0000 ca         1 77M      -0.083000
      2 C5           1.3960     0.0000     0.0000 ca         1 77M      -0.168600
      3 C6           2.0910     0.0000     1.2160 ca         1 77M       0.176100
      4 C7          -2.1760     0.0050     1.2070 cp         1 77M      -0.040000
      5 C8          -2.8760     0.0160     0.0020 ca         1 77M      -0.075500
      6 C10         -4.9450     0.0260     1.2110 ca         1 77M       0.105900
      7 C20         -1.6810    -0.0230   -11.2070 ca         1 77M      -0.148000
      8 C21         -1.1250    -0.0120   -12.4800 ca         1 77M       0.133100
      9 C22          0.2600     0.0000   -12.6400 ca         1 77M       0.087100
     10 C24          0.5250     0.0000   -10.2490 ca         1 77M      -0.184600
     11 C1           1.3890    -0.0010     2.4180 ca         1 77M       0.067100
     12 C2           0.0070    -0.0010     2.4130 ca         1 77M      -0.107000
     13 C3          -0.6920    -0.0010     1.2050 cp         1 77M      -0.039000
     14 C9          -4.2560     0.0270     0.0090 ca         1 77M      -0.126000
     15 C11         -4.2530     0.0150     2.4110 ca         1 77M      -0.126000
     16 C12         -2.8720     0.0040     2.4140 ca         1 77M      -0.075500
     17 F13         -6.2960     0.0370     1.2130 f          1 77M      -0.126900
     18 O14          2.0640    -0.0010     3.5980 oh         1 77M      -0.493100
     19 O15          3.4490     0.0000     1.2210 oh         1 77M      -0.460100
     20 C16          2.1350     0.0010    -1.2770 c          1 77M       0.597700
     21 N17          1.4630     0.0010    -2.4450 ns         1 77M      -0.215900
     22 O18          3.3510     0.0010    -1.2750 o          1 77M      -0.617100
     23 C19         -0.8670    -0.0180   -10.0960 ca         1 77M      -0.065000
     24 C23          1.0840     0.0010   -11.5330 ca         1 77M      -0.065000
     25 C25          1.3950     0.0010    -9.0670 c          1 77M       0.641700
     26 O26          2.6010     0.0010    -9.2010 o          1 77M      -0.521100
     27 C27          0.7910     0.0000    -7.6860 c3         1 77M      -0.022300
     28 S28          2.1160     0.0010    -6.4470 ss         1 77M      -0.329200
     29 C29          1.2060     0.0010    -4.8770 c3         1 77M       0.051700
     30 C30          2.1990     0.0010    -3.7130 c3         1 77M       0.076000
     31 O32         -1.9340    -0.0120   -13.5700 oh         1 77M      -0.488100
     32 H1          -0.5430    -0.0000    -0.9380 ha         1 77M       0.112000
     33 H2          -2.3380     0.0170    -0.9380 ha         1 77M       0.112500
     34 H3          -2.7570    -0.0350   -11.0880 ha         1 77M       0.118000
     35 H4          -0.5360    -0.0020     3.3500 ha         1 77M       0.122000
     36 H5          -4.8010     0.0360    -0.9270 ha         1 77M       0.119500
     37 H6          -4.7960     0.0140     3.3490 ha         1 77M       0.119500
     38 H7          -2.3320    -0.0040     3.3520 ha         1 77M       0.112500
     39 H8           2.0350     0.8620     3.9770 ho         1 77M       0.410000
     40 H9           3.7620    -0.8350     1.5280 ho         1 77M       0.413000
     41 H10          0.4630    -0.0120    -2.4470 hn         1 77M       0.175500
     42 H11         -1.3030    -0.0220    -9.1050 ha         1 77M       0.106000
     43 H12          2.1600     0.0130   -11.6570 ha         1 77M       0.136000
     44 H13          0.1780     0.8850    -7.5590 h1         1 77M       0.052700
     45 H14          0.1790    -0.8850    -7.5600 h1         1 77M       0.052700
     46 H15          0.5830     0.8850    -4.8200 h1         1 77M       0.031700
     47 H16          0.5840    -0.8840    -4.8210 h1         1 77M       0.031700
     48 H17          2.8220     0.8850    -3.7690 h1         1 77M       0.042200
     49 H18          2.8220    -0.8840    -3.7690 h1         1 77M       0.042200
     50 H19          1.1810    -0.8310   -14.0740 ho         1 77M       0.408000
     51 H20         -2.3150     0.8430   -13.6800 ho         1 77M       0.410000
     52 O31          0.8000     0.0110   -13.8890 oh         1 77M      -0.485100
@<TRIPOS>BOND
     1     1     2 ar  
     2     1    13 ar  
     3     1    32 1   
     4     2     3 ar  
     5     2    20 1   
     6     3    11 ar  
     7     3    19 1   
     8     4     5 ar  
     9     4    13 1   
    10     4    16 ar  
    11     5    14 ar  
    12     5    33 1   
    13     6    14 ar  
    14     6    15 ar  
    15     6    17 1   
    16     7     8 ar  
    17     7    23 ar  
    18     7    34 1   
    19     8     9 ar  
    20     8    31 1   
    21     9    24 ar  
    22     9    52 1   
    23    10    23 ar  
    24    10    24 ar  
    25    10    25 1   
    26    11    12 ar  
    27    11    18 1   
    28    12    13 ar  
    29    12    35 1   
    30    14    36 1   
    31    15    16 ar  
    32    15    37 1   
    33    16    38 1   
    34    18    39 1   
    35    19    40 1   
    36    20    21 1   
    37    20    22 2   
    38    21    30 1   
    39    21    41 1   
    40    23    42 1   
    41    24    43 1   
    42    25    26 2   
    43    25    27 1   
    44    27    28 1   
    45    27    44 1   
    46    27    45 1   
    47    28    29 1   
    48    29    30 1   
    49    29    46 1   
    50    29    47 1   
    51    30    48 1   
    52    30    49 1   
    53    31    51 1   
    54    50    52 1   
@<TRIPOS>SUBSTRUCTURE
     1 77M         1 TEMP              0 ****  ****    0 ROOT
