@<TRIPOS>MOLECULE
molecule
   54    57     1     0     0
SMALL
bcc


@<TRIPOS>ATOM
      1 N3           0.0000     0.0000     0.0000 nc         1 77N      -0.571100
      2 C4           0.6780     0.0000     2.1150 ca         1 77N       0.438800
      3 C6           1.3020     0.0000     0.0000 cd         1 77N       0.429700
      4 C7           9.6180    -0.6890     6.7510 ca         1 77N       0.157100
      5 C8           7.2100    -0.4680     6.7870 ca         1 77N      -0.094000
      6 C10         -1.7220     0.0000     1.8760 ca         1 77N       0.780200
      7 C13          9.6970     0.0030     7.9560 ca         1 77N       0.058100
      8 C15          8.5450     0.4550     8.5720 ca         1 77N      -0.122000
      9 C17          6.0660     0.7100     8.6570 cp         1 77N      -0.052000
     10 C20          4.8190     0.4730     8.0800 ca         1 77N      -0.094500
     11 C21          6.1510     1.4020     9.8620 ca         1 77N      -0.094500
     12 C28          5.0030     1.8490    10.4810 ca         1 77N      -0.162500
     13 C1          -0.4510    -0.0000     1.2770 ca         1 77N      -0.159200
     14 C2           8.3700    -0.9270     6.1620 ca         1 77N      -0.152600
     15 N5           1.7670     0.0000     1.2810 na         1 77N      -0.256000
     16 C9           8.2820    -1.6600     4.8840 c          1 77N       0.672700
     17 N11          0.5030    -0.0000     3.4320 nb         1 77N      -0.759000
     18 C12          7.2980     0.2220     7.9900 cp         1 77N      -0.040000
     19 N14         -1.7970    -0.0000     3.2030 nb         1 77N      -0.771000
     20 C16         -0.7070     0.0000     3.9490 ca         1 77N       0.705900
     21 O18          9.2940    -2.0590     4.3400 o          1 77N      -0.583100
     22 N19          7.0800    -1.8880     4.3180 ns         1 77N      -0.584900
     23 N22         -2.8700     0.0010     1.1020 nv         1 77N      -1.073500
     24 O24         10.9090     0.2340     8.5280 oh         1 77N      -0.515100
     25 C25          3.7650     1.6110     9.9050 ca         1 77N       0.136900
     26 C27          3.6750     0.9240     8.7050 ca         1 77N      -0.162500
     27 F29          2.6420     2.0520    10.5150 f          1 77N      -0.138900
     28 O30          4.9990    -1.4360     2.3590 os         1 77N      -0.431600
     29 C31          6.9920    -2.6150     3.0510 c3         1 77N       0.120000
     30 C32          3.6280    -1.4360     1.9570 c3         1 77N       0.116400
     31 C33          5.5250    -2.7350     2.6320 c3         1 77N       0.121400
     32 H1           1.9230     0.0000    -0.8870 h5         1 77N       0.082800
     33 H2           6.2420    -0.6500     6.3350 ha         1 77N       0.136000
     34 H3           8.6110     0.9940     9.5100 ha         1 77N       0.146000
     35 H4           4.7480    -0.0650     7.1420 ha         1 77N       0.138500
     36 H5           7.1180     1.5880    10.3140 ha         1 77N       0.138500
     37 H6           3.7790     0.4330     0.9060 h1         1 77N       0.080200
     38 H7           3.2840     0.5870     2.5980 h1         1 77N       0.080200
     39 H8           5.0680     2.3870    11.4190 ha         1 77N       0.148500
     40 H9          -0.8140     0.0000     5.0270 h5         1 77N       0.063100
     41 H10          6.2450    -1.5820     4.7780 hn         1 77N       0.317500
     42 H11         -3.2930    -0.8660     0.8350 hn         1 77N       0.445300
     43 H12         -3.2920     0.8680     0.8350 hn         1 77N       0.445300
     44 H13         11.1230    -1.8340     6.6460 ho         1 77N       0.434000
     45 H14         11.1550     1.1340     8.3910 ho         1 77N       0.428000
     46 H15          2.7060     0.7400     8.2580 ha         1 77N       0.148500
     47 H16          7.5430    -2.0780     2.2880 h1         1 77N       0.066200
     48 H17          7.4160    -3.6050     3.1720 h1         1 77N       0.066200
     49 H18          3.0220    -1.8690     2.7440 h1         1 77N       0.038700
     50 H19          3.5170    -2.0220     1.0530 h1         1 77N       0.038700
     51 H20          5.4530    -3.3480     1.7420 h1         1 77N       0.035700
     52 H21          4.9580    -3.1940     3.4330 h1         1 77N       0.035700
     53 C26          3.1730     0.0010     1.6930 c3         1 77N       0.051300
     54 O23         10.7510    -1.1280     6.1440 oh         1 77N      -0.483100
@<TRIPOS>BOND
     1    19    20 ar  
     2    19     6 ar  
     3    20    17 ar  
     4    23     6 1   
     5     6    13 ar  
     6    17     2 ar  
     7    13     2 ar  
     8    13     1 1   
     9     2    15 1   
    10     1     3 2   
    11    15     3 1   
    12    15    53 1   
    13    54     4 1   
    14    53    30 1   
    15    30    28 1   
    16    29    22 1   
    17    29    31 1   
    18    24     7 1   
    19    22    16 1   
    20     4     7 ar  
    21     4    14 ar  
    22     7     8 ar  
    23    16    21 2   
    24    16    14 1   
    25    14     5 ar  
    26    28    31 1   
    27     8    18 ar  
    28     5    18 ar  
    29    18     9 1   
    30    10     9 ar  
    31    10    26 ar  
    32     9    11 ar  
    33    26    25 ar  
    34    11    12 ar  
    35    25    12 ar  
    36    25    27 1   
    37     3    32 1   
    38     5    33 1   
    39     8    34 1   
    40    10    35 1   
    41    11    36 1   
    42    53    37 1   
    43    53    38 1   
    44    12    39 1   
    45    20    40 1   
    46    22    41 1   
    47    23    42 1   
    48    23    43 1   
    49    54    44 1   
    50    24    45 1   
    51    26    46 1   
    52    29    47 1   
    53    29    48 1   
    54    30    49 1   
    55    30    50 1   
    56    31    51 1   
    57    31    52 1   
@<TRIPOS>SUBSTRUCTURE
     1 77N         1 TEMP              0 ****  ****    0 ROOT
