@<TRIPOS>MOLECULE
77N
   54    57     1     0     0
SMALL
bcc


@<TRIPOS>ATOM
      1 N3           0.0000     0.0000     0.0000 nc         1 77N      -0.482100
      2 C4           0.6780     0.0000     2.1150 ca         1 77N       0.223800
      3 C6           1.3020     0.0000     0.0000 cd         1 77N       0.255700
      4 C7           9.6180    -0.6890     6.7510 ca         1 77N       0.174100
      5 C8           7.2100    -0.4680     6.7870 ca         1 77N      -0.082000
      6 C10         -1.7220     0.0000     1.8760 ca         1 77N       0.604200
      7 C13          9.6970     0.0030     7.9560 ca         1 77N       0.065100
      8 C15          8.5450     0.4550     8.5720 ca         1 77N      -0.107000
      9 C17          6.0660     0.7100     8.6570 cp         1 77N      -0.042000
     10 C20          4.8190     0.4730     8.0800 ca         1 77N      -0.076000
     11 C21          6.1510     1.4020     9.8620 ca         1 77N      -0.076000
     12 C28          5.0030     1.8490    10.4810 ca         1 77N      -0.126000
     13 C1          -0.4510    -0.0000     1.2770 ca         1 77N      -0.185200
     14 C2           8.3700    -0.9270     6.1620 ca         1 77N      -0.168600
     15 N5           1.7670     0.0000     1.2810 na         1 77N       0.208000
     16 C9           8.2820    -1.6600     4.8840 c          1 77N       0.596700
     17 N11          0.5030    -0.0000     3.4320 nb         1 77N      -0.623000
     18 C12          7.2980     0.2220     7.9900 cp         1 77N      -0.038000
     19 N14         -1.7970    -0.0000     3.2030 nb         1 77N      -0.658000
     20 C16         -0.7070     0.0000     3.9490 ca         1 77N       0.641900
     21 O18          9.2940    -2.0590     4.3400 o          1 77N      -0.627100
     22 N19          7.0800    -1.8880     4.3180 ns         1 77N      -0.204900
     23 N22         -2.8700     0.0010     1.1020 nv         1 77N      -0.645500
     24 O24         10.9090     0.2340     8.5280 oh         1 77N      -0.494100
     25 C25          3.7650     1.6110     9.9050 ca         1 77N       0.105900
     26 C27          3.6750     0.9240     8.7050 ca         1 77N      -0.126000
     27 F29          2.6420     2.0520    10.5150 f          1 77N      -0.127900
     28 O30          4.9990    -1.4360     2.3590 os         1 77N      -0.415600
     29 C31          6.9920    -2.6150     3.0510 c3         1 77N       0.051000
     30 C32          3.6280    -1.4360     1.9570 c3         1 77N       0.196400
     31 C33          5.5250    -2.7350     2.6320 c3         1 77N       0.200400
     32 H1           1.9230     0.0000    -0.8870 h5         1 77N       0.033800
     33 H2           6.2420    -0.6500     6.3350 ha         1 77N       0.115000
     34 H3           8.6110     0.9940     9.5100 ha         1 77N       0.122000
     35 H4           4.7480    -0.0650     7.1420 ha         1 77N       0.113500
     36 H5           7.1180     1.5880    10.3140 ha         1 77N       0.113500
     37 H6           3.7790     0.4330     0.9060 h1         1 77N       0.048200
     38 H7           3.2840     0.5870     2.5980 h1         1 77N       0.048200
     39 H8           5.0680     2.3870    11.4190 ha         1 77N       0.120500
     40 H9          -0.8140     0.0000     5.0270 h5         1 77N      -0.000900
     41 H10          6.2450    -1.5820     4.7780 hn         1 77N       0.182500
     42 H11         -3.2930    -0.8660     0.8350 hn         1 77N       0.283300
     43 H12         -3.2920     0.8680     0.8350 hn         1 77N       0.283300
     44 H13         11.1230    -1.8340     6.6460 ho         1 77N       0.412000
     45 H14         11.1550     1.1340     8.3910 ho         1 77N       0.410000
     46 H15          2.7060     0.7400     8.2580 ha         1 77N       0.120500
     47 H16          7.5430    -2.0780     2.2880 h1         1 77N       0.035200
     48 H17          7.4160    -3.6050     3.1720 h1         1 77N       0.035200
     49 H18          3.0220    -1.8690     2.7440 h1         1 77N       0.003200
     50 H19          3.5170    -2.0220     1.0530 h1         1 77N       0.003200
     51 H20          5.4530    -3.3480     1.7420 h1         1 77N      -0.000300
     52 H21          4.9580    -3.1940     3.4330 h1         1 77N      -0.000300
     53 C26          3.1730     0.0010     1.6930 c3         1 77N      -0.041700
     54 O23         10.7510    -1.1280     6.1440 oh         1 77N      -0.461100
@<TRIPOS>BOND
     1     1     3 2   
     2     1    13 1   
     3     2    13 ar  
     4     2    15 1   
     5     2    17 ar  
     6     3    15 1   
     7     3    32 1   
     8     4     7 ar  
     9     4    14 ar  
    10     4    54 1   
    11     5    14 ar  
    12     5    18 ar  
    13     5    33 1   
    14     6    13 ar  
    15     6    19 ar  
    16     6    23 1   
    17     7     8 ar  
    18     7    24 1   
    19     8    18 ar  
    20     8    34 1   
    21     9    10 ar  
    22     9    11 ar  
    23     9    18 1   
    24    10    26 ar  
    25    10    35 1   
    26    11    12 ar  
    27    11    36 1   
    28    12    25 ar  
    29    12    39 1   
    30    14    16 1   
    31    15    53 1   
    32    16    21 2   
    33    16    22 1   
    34    17    20 ar  
    35    19    20 ar  
    36    20    40 1   
    37    22    29 1   
    38    22    41 1   
    39    23    42 1   
    40    23    43 1   
    41    24    45 1   
    42    25    26 ar  
    43    25    27 1   
    44    26    46 1   
    45    28    30 1   
    46    28    31 1   
    47    29    31 1   
    48    29    47 1   
    49    29    48 1   
    50    30    49 1   
    51    30    50 1   
    52    30    53 1   
    53    31    51 1   
    54    31    52 1   
    55    37    53 1   
    56    38    53 1   
    57    44    54 1   
@<TRIPOS>SUBSTRUCTURE
     1 77N         1 TEMP              0 ****  ****    0 ROOT
