@<TRIPOS>MOLECULE
molecule
   47    49     1     0     0
SMALL
bcc


@<TRIPOS>ATOM
      1 C4           0.0000     0.0000     0.0000 ca         1 77P      -0.094000
      2 C5           1.3940     0.0000     0.0000 cp         1 77P      -0.053000
      3 C6           2.0870     0.0000     1.2090 ca         1 77P      -0.094000
      4 C7           2.1370    -0.0020    -1.2840 cp         1 77P      -0.038000
      5 C8           1.4400    -0.0030    -2.4940 ca         1 77P      -0.120000
      6 C10          3.5200    -0.0030    -3.7000 ca         1 77P       0.158100
      7 C20         12.6870     0.0280     2.4720 ca         1 77P      -0.326600
      8 C21         10.4950     0.0220     1.2770 c          1 77P       0.574600
      9 C26         13.9690     0.0160     0.1150 ca         1 77P       0.704900
     10 C1           1.3910     0.0010     2.4000 ca         1 77P      -0.162500
     11 C2           0.0060     0.0020     2.3960 ca         1 77P       0.138900
     12 C3          -0.6870     0.0010     1.1960 ca         1 77P      -0.162500
     13 C9           2.1280    -0.0030    -3.6930 ca         1 77P       0.059100
     14 C11          4.2250     0.0030    -2.4890 ca         1 77P      -0.154600
     15 C12          3.5270     0.0040    -1.2810 ca         1 77P      -0.095000
     16 F13         -0.6720     0.0020     3.5650 f          1 77P      -0.137900
     17 C14          5.7010     0.0030    -2.4920 c          1 77P       0.675700
     18 N15          6.3760     0.0090    -1.3260 ns         1 77P      -0.588900
     19 O16          6.3070    -0.0030    -3.5460 o          1 77P      -0.577100
     20 O17          4.1940    -0.0040    -4.8790 oh         1 77P      -0.483100
     21 O18          1.4430    -0.0050    -4.8680 oh         1 77P      -0.514100
     22 C19         11.9790     0.0220     1.2740 ca         1 77P       0.423800
     23 N22         12.6540     0.0160     0.1260 nb         1 77P      -0.750000
     24 C23         14.0820     0.0280     2.4130 ca         1 77P       0.669600
     25 N24          9.8190     0.0160     0.1110 ns         1 77P      -0.562900
     26 O25          9.8890     0.0280     2.3300 o          1 77P      -0.598100
     27 N27         14.6770     0.0160     1.2280 nb         1 77P      -0.770000
     28 O28         14.8190     0.0400     3.5510 oh         1 77P      -0.613300
     29 C29          8.3540     0.0160     0.1130 c3         1 77P       0.093000
     30 C30          7.8410     0.0090    -1.3280 c3         1 77P       0.098000
     31 H1          -0.5430    -0.0000    -0.9380 ha         1 77P       0.137500
     32 H2           3.1700    -0.0000     1.2130 ha         1 77P       0.137500
     33 H3           0.3570    -0.0030    -2.4930 ha         1 77P       0.147000
     34 H5          14.4870     0.0090    -0.8370 h5         1 77P       0.067100
     35 H6           1.9280     0.0010     3.3410 ha         1 77P       0.149000
     36 H7          -1.7700     0.0010     1.1970 ha         1 77P       0.149000
     37 H8           4.0670     0.0090    -0.3420 ha         1 77P       0.134000
     38 H9           5.8770     0.0170    -0.4590 hn         1 77P       0.314500
     39 H10          4.0860    -0.8400    -5.3020 ho         1 77P       0.435000
     40 H11          1.1010     0.8580    -5.0340 ho         1 77P       0.428000
     41 H12         10.3180    -0.0130    -0.7560 hn         1 77P       0.340500
     42 H14          7.9930     0.9030     0.6200 h1         1 77P       0.056700
     43 H15          7.9930    -0.8660     0.6290 h1         1 77P       0.056700
     44 H16          8.2020     0.8910    -1.8430 h1         1 77P       0.060700
     45 H17          8.2020    -0.8780    -1.8350 h1         1 77P       0.060700
     46 H13         15.2910    -0.7720     3.6280 ho         1 77P       0.443000
     47 H4          12.1710     0.0380     3.4240 ha         1 77P       0.183000
@<TRIPOS>BOND
     1    20     6 1   
     2    26     8 2   
     3    30    18 1   
     4    30    29 1   
     5    21    13 1   
     6    18    17 1   
     7    23     9 ar  
     8    23    22 ar  
     9     6    13 ar  
    10     6    14 ar  
    11    13     5 ar  
    12     9    27 ar  
    13    17    14 1   
    14    17    19 2   
    15    14    15 ar  
    16     8    22 1   
    17     8    25 1   
    18     5     4 ar  
    19    22     7 ar  
    20    29    25 1   
    21    15     4 ar  
    22     4     2 1   
    23    27    24 ar  
    24     1     2 ar  
    25     1    12 ar  
    26     2     3 ar  
    27     7    24 ar  
    28    12    11 ar  
    29    24    28 1   
    30     3    10 ar  
    31    11    10 ar  
    32    11    16 1   
    33     1    31 1   
    34     3    32 1   
    35     5    33 1   
    36     7    47 1   
    37     9    34 1   
    38    10    35 1   
    39    12    36 1   
    40    15    37 1   
    41    18    38 1   
    42    20    39 1   
    43    21    40 1   
    44    25    41 1   
    45    29    42 1   
    46    29    43 1   
    47    30    44 1   
    48    30    45 1   
    49    28    46 1   
@<TRIPOS>SUBSTRUCTURE
     1 77P         1 TEMP              0 ****  ****    0 ROOT
