@<TRIPOS>MOLECULE
molecule
   56    59     1     0     0
SMALL
bcc


@<TRIPOS>ATOM
      1 C5           0.0000     0.0000     0.0000 c          1 77Q       0.672700
      2 C6           3.7620     0.0000     0.0000 cp         1 77Q      -0.039000
      3 C7           2.9990     0.0050    -2.2840 ca         1 77Q       0.059100
      4 C8          -4.7320    -1.1480     8.0690 cc         1 77Q      -0.101100
      5 C10         -4.7150    -0.8060     9.3680 cd         1 77Q      -0.185200
      6 C13          4.8780     0.0010     0.9770 cp         1 77Q      -0.052000
      7 C17          4.6100    -0.0050     2.3450 ca         1 77Q      -0.094500
      8 C20         -4.4100     2.4540     7.8410 ca         1 77Q      -0.269300
      9 C22          6.9620     0.0020     2.8020 ca         1 77Q       0.137900
     10 C24          5.6510    -0.0040     3.2500 ca         1 77Q      -0.162500
     11 C28         -4.3490     3.3160     8.9130 ca         1 77Q       0.428200
     12 C1           1.3990    -0.0000    -0.4720 ca         1 77Q      -0.154600
     13 C2           1.6780     0.0000    -1.8450 ca         1 77Q       0.158100
     14 C3           2.4470     0.0000     0.4490 ca         1 77Q      -0.096000
     15 N4          -4.6210    -0.0270     7.2890 na         1 77Q      -0.069400
     16 C9          -4.5340     1.0880     8.0830 ca         1 77Q      -0.012200
     17 C11         -4.5880     0.6510     9.4240 ca         1 77Q      -0.234100
     18 C12          4.0340     0.0060    -1.3690 ca         1 77Q      -0.122000
     19 O14         -0.9120    -0.0010    -0.8050 o          1 77Q      -0.581100
     20 N15         -4.4000     2.8740    10.1590 nb         1 77Q      -0.714000
     21 N16         -0.2660    -0.0060     1.3200 ns         1 77Q      -0.588900
     22 C18          6.1990     0.0020     0.5310 ca         1 77Q      -0.094500
     23 O19          0.6620     0.0000    -2.7440 oh         1 77Q      -0.483100
     24 C23         -4.5170     1.5940    10.4470 ca         1 77Q       0.470200
     25 C25          7.2330     0.0010     1.4430 ca         1 77Q      -0.162500
     26 F26          7.9790     0.0020     3.6920 f          1 77Q      -0.137900
     27 C27         -4.6000    -0.0200     5.8250 c3         1 77Q       0.048300
     28 C29         -1.6540    -0.0060     1.7890 c3         1 77Q       0.114000
     29 C30         -3.1500    -0.0200     5.3360 c3         1 77Q      -0.106400
     30 C31         -1.6770    -0.0130     3.3180 c3         1 77Q      -0.100400
     31 C32         -3.1270    -0.0130     3.8070 c3         1 77Q      -0.078400
     32 H2          -4.7860    -1.4800    10.2130 ha         1 77Q       0.157000
     33 H3           3.5860    -0.0090     2.6970 ha         1 77Q       0.137500
     34 H4          -4.3670     2.8320     6.8270 ha         1 77Q       0.131000
     35 H5           5.4430    -0.0060     4.3130 ha         1 77Q       0.148500
     36 H6          -4.2520     4.3800     8.7320 h4         1 77Q       0.022100
     37 H7           2.2370     0.0790     1.5090 ha         1 77Q       0.134000
     38 H8           5.0610     0.0100    -1.7150 ha         1 77Q       0.147000
     39 H9           0.4850    -0.0140     1.9820 hn         1 77Q       0.310500
     40 H10          6.4130     0.0010    -0.5310 ha         1 77Q       0.137500
     41 H11          0.6300    -0.8340    -3.1820 ho         1 77Q       0.435000
     42 H13         -4.5550     1.2730    11.4810 h4         1 77Q       0.023100
     43 H14          8.2600     0.0040     1.0970 ha         1 77Q       0.148500
     44 H15         -5.1070    -0.9020     5.4520 h1         1 77Q       0.061700
     45 H16         -5.1040     0.8670     5.4600 h1         1 77Q       0.061700
     46 H17         -2.1610    -0.8890     1.4170 h1         1 77Q       0.055700
     47 H18         -2.1590     0.8800     1.4240 h1         1 77Q       0.055700
     48 H19         -2.6470    -0.9080     5.7010 hc         1 77Q       0.056200
     49 H20         -2.6430     0.8610     5.7090 hc         1 77Q       0.056200
     50 H21         -1.1730    -0.8990     3.6830 hc         1 77Q       0.047200
     51 H22         -1.1710     0.8700     3.6910 hc         1 77Q       0.047200
     52 H23         -3.6320     0.8740     3.4420 hc         1 77Q       0.047700
     53 H24         -3.6340    -0.8950     3.4340 hc         1 77Q       0.047700
     54 O21          3.2710     0.0110    -3.6170 oh         1 77Q      -0.514100
     55 H1          -4.8200    -2.1600     7.6940 h4         1 77Q       0.167000
     56 H12          3.5390     0.8760    -3.8790 ho         1 77Q       0.428000
@<TRIPOS>BOND
     1    20    11 ar
     2    20    24 ar
     3    11     8 ar
     4    24    17 ar
     5     8    16 ar
     6    17    16 ar
     7    17     5 1
     8    16    15 1
     9     5     4 2
    10    15     4 1
    11    15    27 1
    12    23    13 1
    13    28    21 1
    14    28    30 1
    15    27    29 1
    16    29    31 1
    17    21     1 1
    18    54     3 1
    19    13     3 ar
    20    13    12 ar
    21     1    12 1
    22     1    19 2
    23     3    18 ar
    24    12    14 ar
    25    31    30 1
    26    18     2 ar
    27    14     2 ar
    28     2     6 1
    29     7     6 ar
    30     7    10 ar
    31     6    22 ar
    32    10     9 ar
    33    22    25 ar
    34     9    25 ar
    35     9    26 1
    36     4    55 1
    37     5    32 1
    38     7    33 1
    39     8    34 1
    40    10    35 1
    41    11    36 1
    42    14    37 1
    43    18    38 1
    44    21    39 1
    45    22    40 1
    46    23    41 1
    47    54    56 1
    48    24    42 1
    49    25    43 1
    50    27    44 1
    51    27    45 1
    52    28    46 1
    53    28    47 1
    54    29    48 1
    55    29    49 1
    56    30    50 1
    57    30    51 1
    58    31    52 1
    59    31    53 1
@<TRIPOS>SUBSTRUCTURE
     1 77Q         1 TEMP              0 ****  ****    0 ROOT
