@<TRIPOS>MOLECULE
77R
   50    52     1     0     0
SMALL
bcc


@<TRIPOS>ATOM
      1 C4           0.0000     0.0000     0.0000 c          1 77R       0.596700
      2 C5           3.7630     0.0000     0.0000 cp         1 77R      -0.027000
      3 C6           2.9980     0.0070    -2.2850 ca         1 77R       0.068100
      4 C10         -4.6310     1.0500     8.0980 cc         1 77R       0.221400
      5 C13         -4.6320    -1.1390     8.0970 cc         1 77R      -0.435600
      6 C17          6.1280    -0.0000     1.0810 ca         1 77R      -0.079500
      7 C20          6.6860    -0.0070     3.4110 ca         1 77R       0.102900
      8 C21          7.0770    -0.0000     2.0820 ca         1 77R      -0.124500
      9 C22          5.3410    -0.0010     3.7410 ca         1 77R      -0.124500
     10 C24         -4.5980    -0.0240     5.8270 c3         1 77R      -0.042700
     11 C26         -3.1480    -0.0240     5.3380 c3         1 77R      -0.047400
     12 C28         -3.1260    -0.0160     3.8080 c3         1 77R      -0.017400
     13 C1           1.3990     0.0000    -0.4720 ca         1 77R      -0.169600
     14 C2           1.6780     0.0010    -1.8440 ca         1 77R       0.170100
     15 C3           2.4480     0.0000     0.4490 ca         1 77R      -0.109000
     16 N7          -4.6530     0.6470     9.3390 nd         1 77R      -0.621000
     17 N8          -4.6190    -0.0320     7.2910 na         1 77R       0.284100
     18 C9           4.0350     0.0070    -1.3680 ca         1 77R      -0.090000
     19 C11          4.7730    -0.0000     1.4090 cp         1 77R      -0.028000
     20 C12         -4.6590    -0.6940     9.3680 cd         1 77R       0.324200
     21 O14         -0.9120     0.0000    -0.8030 o          1 77R      -0.624100
     22 N15         -0.2650    -0.0070     1.3210 ns         1 77R      -0.210900
     23 C16          4.3840    -0.0010     2.7460 ca         1 77R      -0.079500
     24 O18          0.6620     0.0030    -2.7440 oh         1 77R      -0.460100
     25 F23          7.6200    -0.0070     4.3880 f          1 77R      -0.126900
     26 C25         -1.6530    -0.0070     1.7890 c3         1 77R       0.053000
     27 C27         -1.6760    -0.0150     3.3190 c3         1 77R      -0.042400
     28 H2          -4.6290    -2.1730     7.7750 h4         1 77R       0.152000
     29 H3           6.4350     0.0050     0.0420 ha         1 77R       0.110500
     30 H4           8.1310    -0.0030     1.8280 ha         1 77R       0.120500
     31 H5           5.0400    -0.0030     4.7820 ha         1 77R       0.120500
     32 H6          -5.1050    -0.9060     5.4540 h1         1 77R       0.036700
     33 H7          -5.1020     0.8630     5.4630 h1         1 77R       0.036700
     34 H8          -2.6420     0.8580     5.7120 hc         1 77R       0.026700
     35 H9          -2.6440    -0.9110     5.7030 hc         1 77R       0.026700
     36 H10         -3.6320    -0.8990     3.4350 hc         1 77R       0.020700
     37 H11         -3.6300     0.8700     3.4440 hc         1 77R       0.020700
     38 H12          2.2380    -0.0060     1.5110 ha         1 77R       0.116000
     39 H13          5.0610     0.0100    -1.7150 ha         1 77R       0.116000
     40 H14         -4.6750    -1.3120    10.2580 h4         1 77R       0.002100
     41 H15          0.4860    -0.0530     1.9820 hn         1 77R       0.177500
     42 H16          3.3320     0.0030     3.0050 ha         1 77R       0.110500
     43 H17          0.6290    -0.8320    -3.1820 ho         1 77R       0.412000
     44 H19         -2.1570     0.8800     1.4250 h1         1 77R       0.027700
     45 H20         -2.1590    -0.8890     1.4160 h1         1 77R       0.027700
     46 H21         -1.1700     0.8670     3.6930 hc         1 77R       0.018200
     47 H22         -1.1710    -0.9020     3.6840 hc         1 77R       0.018200
     48 O19          3.2700     0.0150    -3.6170 oh         1 77R      -0.492100
     49 H1          -4.6230     2.0830     7.7700 h5         1 77R       0.022100
     50 H18          3.5390     0.8800    -3.8780 ho         1 77R       0.410000
@<TRIPOS>BOND
     1     1    13 1   
     2     1    21 2   
     3     1    22 1   
     4     2    15 ar  
     5     2    18 ar  
     6     2    19 1   
     7     3    14 ar  
     8     3    18 ar  
     9     3    48 1   
    10     4    16 2   
    11     4    17 1   
    12     4    49 1   
    13     5    17 1   
    14     5    20 2   
    15     5    28 1   
    16     6     8 ar  
    17     6    19 ar  
    18     6    29 1   
    19     7     8 ar  
    20     7     9 ar  
    21     7    25 1   
    22     8    30 1   
    23     9    23 ar  
    24     9    31 1   
    25    10    11 1   
    26    10    17 1   
    27    10    32 1   
    28    10    33 1   
    29    11    12 1   
    30    11    34 1   
    31    11    35 1   
    32    12    27 1   
    33    12    36 1   
    34    12    37 1   
    35    13    14 ar  
    36    13    15 ar  
    37    14    24 1   
    38    15    38 1   
    39    16    20 1   
    40    18    39 1   
    41    19    23 ar  
    42    20    40 1   
    43    22    26 1   
    44    22    41 1   
    45    23    42 1   
    46    24    43 1   
    47    26    27 1   
    48    26    44 1   
    49    26    45 1   
    50    27    46 1   
    51    27    47 1   
    52    48    50 1   
@<TRIPOS>SUBSTRUCTURE
     1 77R         1 TEMP              0 ****  ****    0 ROOT
