@<TRIPOS>MOLECULE
molecule
   50    52     1     0     0
SMALL
bcc


@<TRIPOS>ATOM
      1 C4           0.0000     0.0000     0.0000 c          1 77R       0.672700
      2 C5           3.7630     0.0000     0.0000 cp         1 77R      -0.039000
      3 C6           2.9980     0.0070    -2.2850 ca         1 77R       0.063100
      4 C10         -4.6310     1.0500     8.0980 cc         1 77R       0.393400
      5 C13         -4.6320    -1.1390     8.0970 cc         1 77R      -0.279600
      6 C17          6.1280    -0.0000     1.0810 ca         1 77R      -0.098500
      7 C20          6.6860    -0.0070     3.4110 ca         1 77R       0.132900
      8 C21          7.0770    -0.0000     2.0820 ca         1 77R      -0.160500
      9 C22          5.3410    -0.0010     3.7410 ca         1 77R      -0.160500
     10 C24         -4.5980    -0.0240     5.8270 c3         1 77R       0.042300
     11 C26         -3.1480    -0.0240     5.3380 c3         1 77R      -0.103400
     12 C28         -3.1260    -0.0160     3.8080 c3         1 77R      -0.078400
     13 C1           1.3990     0.0000    -0.4720 ca         1 77R      -0.155600
     14 C2           1.6780     0.0010    -1.8440 ca         1 77R       0.154100
     15 C3           2.4480     0.0000     0.4490 ca         1 77R      -0.110000
     16 N7          -4.6530     0.6470     9.3390 nd         1 77R      -0.697000
     17 N8          -4.6190    -0.0320     7.2910 na         1 77R      -0.189900
     18 C9           4.0350     0.0070    -1.3680 ca         1 77R      -0.111000
     19 C11          4.7730    -0.0000     1.4090 cp         1 77R      -0.043000
     20 C12         -4.6590    -0.6940     9.3680 cd         1 77R       0.311200
     21 O14         -0.9120     0.0000    -0.8030 o          1 77R      -0.580100
     22 N15         -0.2650    -0.0070     1.3210 ns         1 77R      -0.589900
     23 C16          4.3840    -0.0010     2.7460 ca         1 77R      -0.098500
     24 O18          0.6620     0.0030    -2.7440 oh         1 77R      -0.483100
     25 F23          7.6200    -0.0070     4.3880 f          1 77R      -0.137900
     26 C25         -1.6530    -0.0070     1.7890 c3         1 77R       0.115000
     27 C27         -1.6760    -0.0150     3.3190 c3         1 77R      -0.100400
     28 H2          -4.6290    -2.1730     7.7750 h4         1 77R       0.172000
     29 H3           6.4350     0.0050     0.0420 ha         1 77R       0.137000
     30 H4           8.1310    -0.0030     1.8280 ha         1 77R       0.150000
     31 H5           5.0400    -0.0030     4.7820 ha         1 77R       0.150000
     32 H6          -5.1050    -0.9060     5.4540 h1         1 77R       0.063200
     33 H7          -5.1020     0.8630     5.4630 h1         1 77R       0.063200
     34 H8          -2.6420     0.8580     5.7120 hc         1 77R       0.056200
     35 H9          -2.6440    -0.9110     5.7030 hc         1 77R       0.056200
     36 H10         -3.6320    -0.8990     3.4350 hc         1 77R       0.048700
     37 H11         -3.6300     0.8700     3.4440 hc         1 77R       0.048700
     38 H12          2.2380    -0.0060     1.5110 ha         1 77R       0.134000
     39 H13          5.0610     0.0100    -1.7150 ha         1 77R       0.146000
     40 H14         -4.6750    -1.3120    10.2580 h4         1 77R       0.040100
     41 H15          0.4860    -0.0530     1.9820 hn         1 77R       0.310500
     42 H16          3.3320     0.0030     3.0050 ha         1 77R       0.137000
     43 H17          0.6290    -0.8320    -3.1820 ho         1 77R       0.434000
     44 H19         -2.1570     0.8800     1.4250 h1         1 77R       0.055700
     45 H20         -2.1590    -0.8890     1.4160 h1         1 77R       0.055700
     46 H21         -1.1700     0.8670     3.6930 hc         1 77R       0.047700
     47 H22         -1.1710    -0.9020     3.6840 hc         1 77R       0.047700
     48 O19          3.2700     0.0150    -3.6170 oh         1 77R      -0.511100
     49 H1          -4.6230     2.0830     7.7700 h5         1 77R       0.063100
     50 H18          3.5390     0.8800    -3.8780 ho         1 77R       0.428000
@<TRIPOS>BOND
     1    16     4 2
     2    16    20 1
     3     4    17 1
     4    20     5 2
     5    17     5 1
     6    17    10 1
     7    24    14 1
     8    26    22 1
     9    26    27 1
    10    10    11 1
    11    11    12 1
    12    22     1 1
    13    48     3 1
    14    14     3 ar
    15    14    13 ar
    16     1    13 1
    17     1    21 2
    18     3    18 ar
    19    13    15 ar
    20    12    27 1
    21    18     2 ar
    22    15     2 ar
    23     2    19 1
    24    23    19 ar
    25    23     9 ar
    26    19     6 ar
    27     9     7 ar
    28     6     8 ar
    29     7     8 ar
    30     7    25 1
    31     4    49 1
    32     5    28 1
    33     6    29 1
    34     8    30 1
    35     9    31 1
    36    10    32 1
    37    10    33 1
    38    11    34 1
    39    11    35 1
    40    12    36 1
    41    12    37 1
    42    15    38 1
    43    18    39 1
    44    20    40 1
    45    22    41 1
    46    23    42 1
    47    24    43 1
    48    48    50 1
    49    26    44 1
    50    26    45 1
    51    27    46 1
    52    27    47 1
@<TRIPOS>SUBSTRUCTURE
     1 77R         1 TEMP              0 ****  ****    0 ROOT
