@<TRIPOS>MOLECULE
77S
   53    56     1     0     0
SMALL
bcc


@<TRIPOS>ATOM
      1 C4           0.0000     0.0000     0.0000 ca         1 77S      -0.083000
      2 C5           1.3950     0.0000     0.0000 ca         1 77S      -0.169600
      3 C6           2.0920     0.0000     1.2150 ca         1 77S       0.175100
      4 C7          -2.1760     0.0070     1.2080 cp         1 77S      -0.041000
      5 C8          -2.8760     0.0190     0.0040 ca         1 77S      -0.075500
      6 C10         -4.9450     0.0300     1.2140 ca         1 77S       0.105900
      7 C20          2.9330     4.6410    -9.5890 ca         1 77S      -0.104500
      8 C21          3.5300     3.6590    -8.8200 ca         1 77S      -0.088000
      9 C22          3.7360     2.3990    -9.3470 ca         1 77S      -0.096300
     10 C24          2.7480     3.0990   -11.4120 ca         1 77S      -0.104500
     11 C26          3.3270     0.5660    -7.7560 cc         1 77S       0.583300
     12 C16          2.1350     0.0000    -1.2770 c          1 77S       0.597700
     13 C3          -0.6920    -0.0000     1.2050 cp         1 77S      -0.039000
     14 C12         -2.8730     0.0050     2.4150 ca         1 77S      -0.075500
     15 C11         -4.2520     0.0170     2.4130 ca         1 77S      -0.126000
     16 F13         -6.2950     0.0420     1.2160 f          1 77S      -0.126900
     17 C9          -4.2560     0.0300     0.0110 ca         1 77S      -0.126000
     18 C2           0.0080    -0.0070     2.4140 ca         1 77S      -0.107000
     19 O15          3.4500    -0.0000     1.2210 oh         1 77S      -0.459100
     20 C1           1.3900    -0.0010     2.4180 ca         1 77S       0.067100
     21 O14          2.0650    -0.0020     3.5970 oh         1 77S      -0.493100
     22 N17          1.4620     0.0000    -2.4450 ns         1 77S      -0.214900
     23 C32          2.1970     0.0010    -3.7130 c3         1 77S       0.054000
     24 C31          1.2040     0.0010    -4.8770 c3         1 77S      -0.040700
     25 C29          1.9590     0.0010    -6.1820 cd         1 77S       0.251800
     26 N28          1.8150    -0.8900    -7.1780 na         1 77S       0.310600
     27 N27          2.7120    -0.5040    -8.1870 nd         1 77S      -0.689800
     28 N30          2.8700     0.8690    -6.5420 nc         1 77S      -0.679000
     29 C23          3.3460     2.1180   -10.6430 ca         1 77S      -0.088000
     30 C19          2.5370     4.3590   -10.8830 ca         1 77S      -0.102000
     31 H1          -0.5430    -0.0000    -0.9370 ha         1 77S       0.112000
     32 H2          -2.3390     0.0190    -0.9360 ha         1 77S       0.112500
     33 H4           3.8400     3.8790    -7.8060 ha         1 77S       0.112000
     34 H5           2.4400     2.8790   -12.4270 ha         1 77S       0.102000
     35 H6          -2.3320    -0.0040     3.3540 ha         1 77S       0.112500
     36 H7          -4.7940     0.0160     3.3500 ha         1 77S       0.119500
     37 H8          -4.8020     0.0390    -0.9250 ha         1 77S       0.119500
     38 H9          -0.5350    -0.0080     3.3520 ha         1 77S       0.122000
     39 H10          3.7620    -0.8350     1.5270 ho         1 77S       0.412000
     40 H11          2.0370     0.8600     3.9770 ho         1 77S       0.410000
     41 H12          0.4620    -0.0250    -2.4470 hn         1 77S       0.174500
     42 H13          2.8200    -0.8840    -3.7700 h1         1 77S       0.040200
     43 H14          2.8200     0.8850    -3.7690 h1         1 77S       0.040200
     44 H15          0.5810     0.8860    -4.8210 hc         1 77S       0.022200
     45 H16          0.5810    -0.8830    -4.8200 hc         1 77S       0.022200
     46 H17          1.1930    -1.6730    -7.1960 hn         1 77S       0.156700
     47 H20          3.5090     1.1300   -11.0560 ha         1 77S       0.112000
     48 H21          2.0690     5.1280   -11.4860 ha         1 77S       0.100000
     49 C25          4.3870     1.3290    -8.5080 c3         1 77S       0.030600
     50 O18          3.3510    -0.0000    -1.2760 o          1 77S      -0.617100
     51 H3           2.7700     5.6290    -9.1750 ha         1 77S       0.102000
     52 H18          5.0700     1.7880    -7.8030 hc         1 77S       0.032700
     53 H19          4.9340     0.6490    -9.1500 hc         1 77S       0.032700
@<TRIPOS>BOND
     1     1     2 ar  
     2     1    13 ar  
     3     1    31 1   
     4     2     3 ar  
     5     2    12 1   
     6     3    19 1   
     7     3    20 ar  
     8     4     5 ar  
     9     4    13 1   
    10     4    14 ar  
    11     5    17 ar  
    12     5    32 1   
    13     6    15 ar  
    14     6    16 1   
    15     6    17 ar  
    16     7     8 ar  
    17     7    30 ar  
    18     7    51 1   
    19     8     9 ar  
    20     8    33 1   
    21     9    29 ar  
    22     9    49 1   
    23    10    29 ar  
    24    10    30 ar  
    25    10    34 1   
    26    11    27 2   
    27    11    28 1   
    28    11    49 1   
    29    12    22 1   
    30    12    50 2   
    31    13    18 ar  
    32    14    15 ar  
    33    14    35 1   
    34    15    36 1   
    35    17    37 1   
    36    18    20 ar  
    37    18    38 1   
    38    19    39 1   
    39    20    21 1   
    40    21    40 1   
    41    22    23 1   
    42    22    41 1   
    43    23    24 1   
    44    23    42 1   
    45    23    43 1   
    46    24    25 1   
    47    24    44 1   
    48    24    45 1   
    49    25    26 1   
    50    25    28 2   
    51    26    27 1   
    52    26    46 1   
    53    29    47 1   
    54    30    48 1   
    55    49    52 1   
    56    49    53 1   
@<TRIPOS>SUBSTRUCTURE
     1 77S         1 TEMP              0 ****  ****    0 ROOT
