@<TRIPOS>MOLECULE
77T
   35    36     1     0     0
SMALL
bcc


@<TRIPOS>ATOM
      1 C5           0.0000     0.0000     0.0000 c3         1 77T       0.146800
      2 C6           1.5490     0.0000     0.0000 c3         1 77T      -0.065400
      3 C7           1.8940     0.0000     1.5080 c3         1 77T       0.158800
      4 C8           2.1820     1.4250     1.9860 c3         1 77T      -0.027100
      5 C10         -1.6410    -0.6460     1.5850 ca         1 77T       0.053600
      6 C13         -4.2330    -0.1800     2.4570 ca         1 77T       0.002000
      7 C1           0.9970    -1.8210     2.9900 c3         1 77T       0.012900
      8 C2           0.6400    -0.5550     2.2070 c3         1 77T       0.118500
      9 N4          -0.3400    -0.8780     1.1480 nh         1 77T      -0.398000
     10 O9           3.0190    -0.8440     1.7590 oh         1 77T      -0.571800
     11 C11         -2.0220     0.6340     1.9810 ca         1 77T      -0.152000
     12 C12         -3.3070     0.8680     2.4140 ca         1 77T      -0.048000
     13 C14         -5.5700     0.0620     2.9060 cg         1 77T       0.229800
     14 N15         -6.6330     0.2690     3.2510 n1         1 77T      -0.364800
     15 C16         -3.8490    -1.4640     2.0520 ca         1 77T       0.137900
     16 F17         -4.7380    -2.4800     2.0920 f          1 77T      -0.115900
     17 C18         -2.5590    -1.6910     1.6200 ca         1 77T      -0.090300
     18 C19         -2.1420    -3.0720     1.1840 c3         1 77T       0.060200
     19 H1          -0.3810     1.0010     0.1610 h1         1 77T       0.020700
     20 H2          -0.3810    -0.4180    -0.9240 h1         1 77T       0.020700
     21 H3           1.9310     0.8940    -0.4790 hc         1 77T       0.034200
     22 H4           1.9310    -0.8940    -0.4790 hc         1 77T       0.034200
     23 H5           1.3390     2.0620     1.7490 hc         1 77T       0.012367
     24 H6           3.0690     1.8000     1.4890 hc         1 77T       0.012367
     25 H7           2.3430     1.4210     3.0570 hc         1 77T       0.012367
     26 H8           1.2410    -2.6170     2.2980 hc         1 77T       0.014367
     27 H9           1.8510    -1.6220     3.6270 hc         1 77T       0.014367
     28 H10          0.1530    -2.1180     3.6010 hc         1 77T       0.014367
     29 H11          0.2280     0.1940     2.8730 h1         1 77T       0.029700
     30 H12          3.7870    -0.4720     1.3570 ho         1 77T       0.391000
     31 H13         -1.3060     1.4460     1.9490 ha         1 77T       0.121000
     32 H14         -3.6020     1.8640     2.7220 ha         1 77T       0.117000
     33 H15         -3.0090    -3.6150     0.8280 hc         1 77T       0.021367
     34 H16         -1.4120    -2.9950     0.3870 hc         1 77T       0.021367
     35 H17         -1.7050    -3.5990     2.0240 hc         1 77T       0.021367
@<TRIPOS>BOND
     1     1     2 1   
     2     1     9 1   
     3     1    19 1   
     4     1    20 1   
     5     2     3 1   
     6     2    21 1   
     7     2    22 1   
     8     3     4 1   
     9     3     8 1   
    10     3    10 1   
    11     4    23 1   
    12     4    24 1   
    13     4    25 1   
    14     5     9 1   
    15     5    11 ar  
    16     5    17 ar  
    17     6    12 ar  
    18     6    13 1   
    19     6    15 ar  
    20     7     8 1   
    21     7    26 1   
    22     7    27 1   
    23     7    28 1   
    24     8     9 1   
    25     8    29 1   
    26    10    30 1   
    27    11    12 ar  
    28    11    31 1   
    29    12    32 1   
    30    13    14 3   
    31    15    16 1   
    32    15    17 ar  
    33    17    18 1   
    34    18    33 1   
    35    18    34 1   
    36    18    35 1   
@<TRIPOS>SUBSTRUCTURE
     1 77T         1 TEMP              0 ****  ****    0 ROOT
