@<TRIPOS>MOLECULE
molecule
   35    36     1     0     0
SMALL
bcc


@<TRIPOS>ATOM
      1 C5           0.0000     0.0000     0.0000 c3         1 77T       0.152800
      2 C6           1.5490     0.0000     0.0000 c3         1 77T      -0.115400
      3 C7           1.8940     0.0000     1.5080 c3         1 77T       0.141800
      4 C8           2.1820     1.4250     1.9860 c3         1 77T      -0.119100
      5 C10         -1.6410    -0.6460     1.5850 ca         1 77T       0.124600
      6 C13         -4.2330    -0.1800     2.4570 ca         1 77T      -0.058000
      7 C1           0.9970    -1.8210     2.9900 c3         1 77T      -0.068100
      8 C2           0.6400    -0.5550     2.2070 c3         1 77T       0.174500
      9 N4          -0.3400    -0.8780     1.1480 nh         1 77T      -0.594000
     10 O9           3.0190    -0.8440     1.7590 oh         1 77T      -0.590800
     11 C11         -2.0220     0.6340     1.9810 ca         1 77T      -0.185000
     12 C12         -3.3070     0.8680     2.4140 ca         1 77T      -0.067000
     13 C14         -5.5700     0.0620     2.9060 cg         1 77T       0.240800
     14 N15         -6.6330     0.2690     3.2510 n1         1 77T      -0.351800
     15 C16         -3.8490    -1.4640     2.0520 ca         1 77T       0.170900
     16 F17         -4.7380    -2.4800     2.0920 f          1 77T      -0.123900
     17 C18         -2.5590    -1.6910     1.6200 ca         1 77T      -0.096300
     18 C19         -2.1420    -3.0720     1.1840 c3         1 77T      -0.039800
     19 H1          -0.3810     1.0010     0.1610 h1         1 77T       0.050200
     20 H2          -0.3810    -0.4180    -0.9240 h1         1 77T       0.050200
     21 H3           1.9310     0.8940    -0.4790 hc         1 77T       0.062700
     22 H4           1.9310    -0.8940    -0.4790 hc         1 77T       0.062700
     23 H5           1.3390     2.0620     1.7490 hc         1 77T       0.044033
     24 H6           3.0690     1.8000     1.4890 hc         1 77T       0.044033
     25 H7           2.3430     1.4210     3.0570 hc         1 77T       0.044033
     26 H8           1.2410    -2.6170     2.2980 hc         1 77T       0.046033
     27 H9           1.8510    -1.6220     3.6270 hc         1 77T       0.046033
     28 H10          0.1530    -2.1180     3.6010 hc         1 77T       0.046033
     29 H11          0.2280     0.1940     2.8730 h1         1 77T       0.045700
     30 H12          3.7870    -0.4720     1.3570 ho         1 77T       0.403000
     31 H13         -1.3060     1.4460     1.9490 ha         1 77T       0.142000
     32 H14         -3.6020     1.8640     2.7220 ha         1 77T       0.147000
     33 H15         -3.0090    -3.6150     0.8280 hc         1 77T       0.055700
     34 H16         -1.4120    -2.9950     0.3870 hc         1 77T       0.055700
     35 H17         -1.7050    -3.5990     2.0240 hc         1 77T       0.055700
@<TRIPOS>BOND
     1     7     8 1   
     2    10     3 1   
     3    12    11 ar  
     4    12     6 ar  
     5    11     5 ar  
     6    14    13 3   
     7    13     6 1   
     8     6    15 ar  
     9     5     9 1   
    10     5    17 ar  
    11     9     8 1   
    12     9     1 1   
    13    15    17 ar  
    14    15    16 1   
    15     8     3 1   
    16    17    18 1   
    17     3     4 1   
    18     3     2 1   
    19     1     2 1   
    20     1    19 1   
    21     1    20 1   
    22     2    21 1   
    23     2    22 1   
    24     4    23 1   
    25     4    24 1   
    26     4    25 1   
    27     7    26 1   
    28     7    27 1   
    29     7    28 1   
    30     8    29 1   
    31    10    30 1   
    32    11    31 1   
    33    12    32 1   
    34    18    33 1   
    35    18    34 1   
    36    18    35 1   
@<TRIPOS>SUBSTRUCTURE
     1 77T         1 TEMP              0 ****  ****    0 ROOT
