@<TRIPOS>MOLECULE
77U
   32    33     1     0     0
SMALL
bcc


@<TRIPOS>ATOM
      1 C4           0.0000     0.0000     0.0000 c3         1 77U       0.175100
      2 C7           1.5510     0.0000     0.0000 c3         1 77U      -0.059400
      3 C8           1.8650     0.0000     1.5170 c3         1 77U       0.147800
      4 C10          0.4750     0.4120     3.3870 ca         1 77U       0.037600
      5 C13         -0.2190    -0.4860     5.9160 ca         1 77U       0.035000
      6 C1          -0.6370     2.3100     0.7690 c3         1 77U       0.014900
      7 C2          -0.3470     0.8770     1.2220 c3         1 77U       0.108500
      8 O6          -0.5060     0.5860    -1.2010 oh         1 77U      -0.567800
      9 N9           0.8250     0.8620     2.1180 nh         1 77U      -0.399000
     10 C11         -0.0410    -0.8710     3.5530 ca         1 77U      -0.138000
     11 C12         -0.3870    -1.3190     4.8060 ca         1 77U      -0.063000
     12 C14         -0.5770    -0.9510     7.2230 cg         1 77U       0.225800
     13 N15         -0.8500    -1.3040     8.2680 n1         1 77U      -0.366800
     14 C16          0.3060     0.8000     5.7490 ca         1 77U      -0.021600
     15 Cl1          0.5170     1.8390     7.1230 cl         1 77U       0.012600
     16 C18          0.6500     1.2430     4.4900 ca         1 77U      -0.055300
     17 C19          1.2150     2.6270     4.3070 c3         1 77U       0.050200
     18 H1          -0.3810    -1.0060     0.1330 h1         1 77U       0.001700
     19 H2           1.9360    -0.8950    -0.4730 hc         1 77U       0.033200
     20 H3           1.9370     0.8950    -0.4730 hc         1 77U       0.033200
     21 H4           2.8480     0.4170     1.6970 h1         1 77U       0.020700
     22 H5           1.7960    -1.0050     1.9150 h1         1 77U       0.020700
     23 H6          -0.9310     2.9060     1.6240 hc         1 77U       0.012700
     24 H7          -1.4400     2.3020     0.0410 hc         1 77U       0.012700
     25 H8           0.2530     2.7340     0.3210 hc         1 77U       0.012700
     26 H9          -1.2070     0.4660     1.7360 h1         1 77U       0.028700
     27 H10         -0.8300    -0.0930    -1.7700 ho         1 77U       0.388000
     28 H11         -0.1710    -1.5160     2.6920 ha         1 77U       0.117000
     29 H12         -0.7880    -2.3170     4.9330 ha         1 77U       0.116000
     30 H13          0.4190     3.3090     4.0350 hc         1 77U       0.022033
     31 H14          1.6720     2.9560     5.2320 hc         1 77U       0.022033
     32 H15          1.9610     2.6120     3.5210 hc         1 77U       0.022033
@<TRIPOS>BOND
     1     1     2 1   
     2     1     7 1   
     3     1     8 1   
     4     1    18 1   
     5     2     3 1   
     6     2    19 1   
     7     2    20 1   
     8     3     9 1   
     9     3    21 1   
    10     3    22 1   
    11     4     9 1   
    12     4    10 ar  
    13     4    16 ar  
    14     5    11 ar  
    15     5    12 1   
    16     5    14 ar  
    17     6     7 1   
    18     6    23 1   
    19     6    24 1   
    20     6    25 1   
    21     7     9 1   
    22     7    26 1   
    23     8    27 1   
    24    10    11 ar  
    25    10    28 1   
    26    11    29 1   
    27    12    13 3   
    28    14    15 1   
    29    14    16 ar  
    30    16    17 1   
    31    17    30 1   
    32    17    31 1   
    33    17    32 1   
@<TRIPOS>SUBSTRUCTURE
     1 77U         1 TEMP              0 ****  ****    0 ROOT
