@<TRIPOS>MOLECULE
77W
   51    56     1     0     0
SMALL
bcc


@<TRIPOS>ATOM
      1 C1           0.0000     0.0000     0.0000 ca         1 77W      -0.141000
      2 C2           1.3880     0.0000     0.0000 ca         1 77W       0.070000
      3 C3           2.0740     0.0000     1.2040 ca         1 77W      -0.153000
      4 C12         -1.3260     1.4270     3.9310 c3         1 77W      -0.186000
      5 C13         -1.9550    -0.9380     3.5520 c2         1 77W      -0.195000
      6 C14         -0.6590    -0.3020     6.0160 ca         1 77W      -0.066000
      7 C15         -1.1320    -1.4510     6.6370 ca         1 77W      -0.091000
      8 C16         -1.8250    -1.3550     7.8280 ca         1 77W      -0.129000
      9 C17         -2.0500    -0.1160     8.4010 ca         1 77W       0.057000
     10 C18         -1.5800     1.0310     7.7850 ca         1 77W      -0.129000
     11 C19         -0.8800     0.9400     6.5970 ca         1 77W      -0.091000
     12 C20         -1.7710    -2.2860     3.8060 c2         1 77W      -0.056500
     13 C21         -2.8280    -3.1640     3.6910 c2         1 77W      -0.210000
     14 C22         -4.0890    -2.6890     3.3160 c3         1 77W       0.097000
     15 C23         -4.2680    -1.3260     3.0610 c2         1 77W      -0.210000
     16 C24         -3.2010    -0.4600     3.1860 c2         1 77W      -0.056500
     17 C25         -5.2220    -3.6200     3.1860 c2         1 77W      -0.078000
     18 C26         -5.0460    -4.9350     3.4320 c2         1 77W      -0.168000
     19 C28         -6.1700    -5.8600     3.3020 c3         1 77W       0.499000
     20 C4           1.3810    -0.0010     2.4040 ca         1 77W      -0.050000
     21 C5           0.0010     0.0030     2.4020 ca         1 77W      -0.069000
     22 C6          -0.6860     0.0070     1.1960 ca         1 77W      -0.066000
     23 C7           2.1700    -0.0050     3.6880 c3         1 77W      -0.048000
     24 C8           1.2720     0.4140     4.8540 c3         1 77W      -0.107000
     25 N9           0.0440    -0.3950     4.8120 nh         1 77W       0.019000
     26 C10         -0.7950     0.0140     3.6800 c3         1 77W       0.086000
     27 O11          2.0710     0.0000    -1.1740 oh         1 77W      -0.256000
     28 F27         -2.7290    -0.0250     9.5660 f          1 77W      -0.101000
     29 O29         -5.9950    -7.1740     3.5490 o          1 77W      -0.586000
     30 O30         -7.2660    -5.4440     2.9720 o          1 77W      -0.586000
     31 H1          -0.5430     0.0000    -0.9370 ha         1 77W       0.112000
     32 H2           3.1570    -0.0000     1.2070 ha         1 77W       0.109000
     33 H3          -1.7810     1.8080     3.0250 hc         1 77W       0.062333
     34 H4          -0.5080     2.0730     4.2230 hc         1 77W       0.062333
     35 H5          -2.0650     1.4000     4.7220 hc         1 77W       0.062333
     36 H6          -0.9580    -2.4200     6.1870 ha         1 77W       0.127500
     37 H7          -2.1940    -2.2510     8.3120 ha         1 77W       0.116000
     38 H8          -1.7550     2.0000     8.2370 ha         1 77W       0.116000
     39 H9          -0.5120     1.8380     6.1140 ha         1 77W       0.127500
     40 H10         -0.7940    -2.6530     4.0940 ha         1 77W       0.103000
     41 H11         -2.6830    -4.2190     3.8900 ha         1 77W       0.122500
     42 H12         -5.2420    -0.9500     2.7720 ha         1 77W       0.122500
     43 H13         -3.3380     0.5960     2.9880 ha         1 77W       0.103000
     44 H14         -4.8450    -3.2430     4.1290 DU         1 77W       0.023000
     45 H15         -5.8300    -5.0510     4.1700 DU         1 77W       0.078000
     46 H16         -1.7690     0.0070     1.1950 ha         1 77W       0.129000
     47 H17          2.9960     0.6910     3.6040 hc         1 77W       0.061000
     48 H18          2.5510    -1.0030     3.8710 hc         1 77W       0.061000
     49 H19          1.7890     0.2420     5.7900 h1         1 77W       0.056000
     50 H20          1.0200     1.4630     4.7580 h1         1 77W       0.056000
     51 H21          2.2640     0.8880    -1.4260 ho         1 77W       0.192000
@<TRIPOS>BOND
     1     1     2 1   
     2     1    22 1   
     3     1    31 1   
     4     2     3 1   
     5     2    27 1   
     6     3    20 1   
     7     3    32 1   
     8     4    26 1   
     9     4    33 1   
    10     4    34 1   
    11     4    35 1   
    12     5    12 1   
    13     5    16 1   
    14     5    26 1   
    15     6     7 1   
    16     6    11 1   
    17     6    25 1   
    18     7     8 1   
    19     7    36 1   
    20     8     9 1   
    21     8    37 1   
    22     9    10 1   
    23     9    28 1   
    24    10    11 1   
    25    10    38 1   
    26    11    39 1   
    27    12    13 1   
    28    12    40 1   
    29    13    14 1   
    30    13    41 1   
    31    14    15 1   
    32    14    17 1   
    33    14    44 1   
    34    15    16 1   
    35    15    42 1   
    36    16    43 1   
    37    17    18 1   
    38    17    44 1   
    39    18    19 1   
    40    18    45 1   
    41    19    29 1   
    42    19    30 1   
    43    19    45 1   
    44    20    21 1   
    45    20    23 1   
    46    21    22 1   
    47    21    26 1   
    48    22    46 1   
    49    23    24 1   
    50    23    47 1   
    51    23    48 1   
    52    24    25 1   
    53    24    49 1   
    54    24    50 1   
    55    25    26 1   
    56    27    51 1   
@<TRIPOS>SUBSTRUCTURE
     1 77W         1 TEMP              0 ****  ****    0 ROOT
