@<TRIPOS>MOLECULE
molecule
   51    54     1     0     0
SMALL
bcc


@<TRIPOS>ATOM
      1 C1           0.0000     0.0000     0.0000 ca         1 77W      -0.154000
      2 C2           1.3880     0.0000     0.0000 ca         1 77W       0.098100
      3 C3           2.0740     0.0000     1.2040 ca         1 77W      -0.163000
      4 C12         -1.3260     1.4270     3.9310 c3         1 77W      -0.125100
      5 C13         -1.9550    -0.9380     3.5520 ca         1 77W      -0.119300
      6 C14         -0.6590    -0.3020     6.0160 ca         1 77W       0.076600
      7 C15         -1.1320    -1.4510     6.6370 ca         1 77W      -0.106500
      8 C16         -1.8250    -1.3550     7.8280 ca         1 77W      -0.165000
      9 C17         -2.0500    -0.1160     8.4010 ca         1 77W       0.124900
     10 C18         -1.5800     1.0310     7.7850 ca         1 77W      -0.165000
     11 C19         -0.8800     0.9400     6.5970 ca         1 77W      -0.106500
     12 C20         -1.7710    -2.2860     3.8060 ca         1 77W      -0.116500
     13 C21         -2.8280    -3.1640     3.6910 ca         1 77W      -0.145500
     14 C22         -4.0890    -2.6890     3.3160 ca         1 77W      -0.002800
     15 C23         -4.2680    -1.3260     3.0610 ca         1 77W      -0.145500
     16 C24         -3.2010    -0.4600     3.1860 ca         1 77W      -0.116500
     17 C25         -5.2220    -3.6200     3.1860 ce         1 77W      -0.186200
     18 C26         -5.0460    -4.9350     3.4320 cf         1 77W      -0.134200
     19 C28         -6.1700    -5.8600     3.3020 c          1 77W       0.863800
     20 C4           1.3810    -0.0010     2.4040 ca         1 77W      -0.056300
     21 C5           0.0010     0.0030     2.4020 ca         1 77W      -0.062300
     22 C6          -0.6860     0.0070     1.1960 ca         1 77W      -0.096000
     23 C7           2.1700    -0.0050     3.6880 c3         1 77W      -0.029100
     24 C8           1.2720     0.4140     4.8540 c3         1 77W       0.159800
     25 N9           0.0440    -0.3950     4.8120 nh         1 77W      -0.595000
     26 C10         -0.7950     0.0140     3.6800 c3         1 77W       0.287800
     27 O11          2.0710     0.0000    -1.1740 oh         1 77W      -0.529100
     28 F27         -2.7290    -0.0250     9.5660 f          1 77W      -0.147900
     29 O29         -5.9950    -7.1740     3.5490 o          1 77W      -0.837300
     30 O30         -7.2660    -5.4440     2.9720 o          1 77W      -0.837300
     31 H1          -0.5430     0.0000    -0.9370 ha         1 77W       0.139000
     32 H2           3.1570     0.0000     1.2070 ha         1 77W       0.132000
     33 H3          -2.0650     1.4000     4.7220 hc         1 77W       0.045033
     34 H4          -1.7810     1.8080     3.0250 hc         1 77W       0.045033
     35 H5          -0.5080     2.0730     4.2230 hc         1 77W       0.045033
     36 H6          -0.9580    -2.4200     6.1870 ha         1 77W       0.148000
     37 H7          -2.1940    -2.2510     8.3120 ha         1 77W       0.143500
     38 H8          -1.7550     2.0000     8.2370 ha         1 77W       0.143500
     39 H9          -0.5120     1.8380     6.1140 ha         1 77W       0.148000
     40 H10         -0.7940    -2.6530     4.0940 ha         1 77W       0.125000
     41 H11         -2.6830    -4.2190     3.8900 ha         1 77W       0.138500
     42 H12         -5.2420    -0.9500     2.7720 ha         1 77W       0.138500
     43 H13         -3.3380     0.5960     2.9880 ha         1 77W       0.125000
     44 H14         -6.1960    -3.2490     2.8920 ha         1 77W       0.153000
     45 H15         -4.0710    -5.3050     3.7250 ha         1 77W       0.104000
     46 H16         -1.7690     0.0070     1.1950 ha         1 77W       0.152000
     47 H17          2.9960     0.6910     3.6040 hc         1 77W       0.054700
     48 H18          2.5510    -1.0030     3.8710 hc         1 77W       0.054700
     49 H19          1.7890     0.2420     5.7900 h1         1 77W       0.040700
     50 H20          1.0200     1.4630     4.7580 h1         1 77W       0.040700
     51 H21          2.2630    -0.8880    -1.4270 ho         1 77W       0.416000
@<TRIPOS>BOND
     1    30    19 1   
     2    29    19 1   
     3    19    18 1   
     4    18    17 2   
     5    17    14 1   
     6    14    15 ar  
     7    14    13 ar  
     8    15    16 ar  
     9    13    12 ar  
    10    16     5 ar  
    11    12     5 ar  
    12     8     7 ar  
    13     8     9 ar  
    14    28     9 1   
    15     5    26 1   
    16     7     6 ar  
    17     9    10 ar  
    18     6    25 1   
    19     6    11 ar  
    20    26    25 1   
    21    26    21 1   
    22    26     4 1   
    23    10    11 ar  
    24    22    21 ar  
    25    22     1 ar  
    26    25    24 1   
    27    21    20 ar  
    28     1     2 ar  
    29    20    23 1   
    30    20     3 ar  
    31    24    23 1   
    32     2     3 ar  
    33     2    27 1   
    34     1    31 1   
    35     3    32 1   
    36     4    33 1   
    37     4    34 1   
    38     4    35 1   
    39     7    36 1   
    40     8    37 1   
    41    10    38 1   
    42    11    39 1   
    43    12    40 1   
    44    13    41 1   
    45    15    42 1   
    46    16    43 1   
    47    17    44 1   
    48    18    45 1   
    49    22    46 1   
    50    23    47 1   
    51    23    48 1   
    52    24    49 1   
    53    24    50 1   
    54    27    51 1   
@<TRIPOS>SUBSTRUCTURE
     1 77W         1 TEMP              0 ****  ****    0 ROOT
