@<TRIPOS>MOLECULE
molecule
   36    38     1     0     0
SMALL
bcc


@<TRIPOS>ATOM
      1 CAS          0.0000     0.0000     0.0000 c3         1 77X      -0.077100
      2 CAR          1.5300     0.0000     0.0000 c3         1 77X      -0.160400
      3 CAP          2.0320     0.0000     1.4220 c          1 77X       0.664100
      4 OAQ          1.2430     0.0010     2.3420 o          1 77X      -0.605100
      5 NAH          3.3570     0.0000     1.6680 n          1 77X      -0.501800
      6 CAG          4.3280     0.0070     0.5650 c3         1 77X       0.106000
      7 CAF          5.1240     1.3170     0.6020 c3         1 77X      -0.040100
      8 CAI          3.8670     0.0000     3.0510 c3         1 77X       0.193300
      9 CAD          4.9920     1.0070     3.1120 cc         1 77X      -0.318600
     10 CAC          5.5460     1.5910     2.0240 cd         1 77X      -0.068600
     11 NAB          6.5110     2.4260     2.4490 na         1 77X      -0.035600
     12 NAA          6.5520     2.3680     3.8500 nc         1 77X      -0.500800
     13 CAE          5.6390     1.5090     4.2500 cd         1 77X       0.412800
     14 CAJ          5.3390     1.1430     5.6570 ca         1 77X      -0.119500
     15 CAK          6.3660     1.0780     6.5970 ca         1 77X      -0.107000
     16 CAL          6.0820     0.7370     7.9040 ca         1 77X      -0.132000
     17 CAM          4.7810     0.4590     8.2810 ca         1 77X      -0.122000
     18 CAN          3.7580     0.5210     7.3530 ca         1 77X      -0.132000
     19 CAO          4.0290     0.8670     6.0450 ca         1 77X      -0.107000
     20 H1          -0.3610     0.0000    -1.0210 hc         1 77X       0.044700
     21 H2          -0.3610    -0.8850     0.5100 hc         1 77X       0.044700
     22 H3          -0.3610     0.8840     0.5110 hc         1 77X       0.044700
     23 H4           1.8910     0.8850    -0.5110 hc         1 77X       0.056700
     24 H5           1.8910    -0.8850    -0.5110 hc         1 77X       0.056700
     25 H6           5.0190    -0.8130     0.7190 h1         1 77X       0.060200
     26 H7           3.7800    -0.0300    -0.3690 h1         1 77X       0.060200
     27 H8           4.4720     2.1200     0.2810 hc         1 77X       0.063700
     28 H9           6.0170     1.1890     0.0020 hc         1 77X       0.063700
     29 H10          4.2700    -0.9810     3.2700 h1         1 77X       0.074700
     30 H11          3.0740     0.3300     3.7110 h1         1 77X       0.074700
     31 H12          7.0930     2.9950     1.8680 hn         1 77X       0.328700
     32 H13          7.3860     1.2960     6.3020 ha         1 77X       0.142500
     33 H14          6.8800     0.6870     8.6350 ha         1 77X       0.132500
     34 H15          4.5620     0.1890     9.3080 ha         1 77X       0.129000
     35 H16          2.7400     0.3050     7.6550 ha         1 77X       0.132500
     36 H17          3.2270     0.9150     5.3190 ha         1 77X       0.142500
@<TRIPOS>BOND
     1    11    12 1   
     2    11    10 1   
     3    12    13 2   
     4    10     7 1   
     5    10     9 2   
     6    19    18 ar  
     7    19    14 ar  
     8     7     6 1   
     9    13    14 1   
    10    13     9 1   
    11    18    17 ar  
    12    14    15 ar  
    13     9     8 1   
    14     6     5 1   
    15    17    16 ar  
    16     4     3 2   
    17    15    16 ar  
    18     5     8 1   
    19     5     3 1   
    20     3     2 1   
    21     2     1 1   
    22     1    20 1   
    23     1    21 1   
    24     1    22 1   
    25     2    23 1   
    26     2    24 1   
    27     6    25 1   
    28     6    26 1   
    29     7    27 1   
    30     7    28 1   
    31     8    29 1   
    32     8    30 1   
    33    11    31 1   
    34    15    32 1   
    35    16    33 1   
    36    17    34 1   
    37    18    35 1   
    38    19    36 1   
@<TRIPOS>SUBSTRUCTURE
     1 77X         1 TEMP              0 ****  ****    0 ROOT
