@<TRIPOS>MOLECULE
77X
   36    38     1     0     0
SMALL
bcc


@<TRIPOS>ATOM
      1 CAS          0.0000     0.0000     0.0000 c3         1 77X       0.021900
      2 CAR          1.5300     0.0000     0.0000 c3         1 77X      -0.102400
      3 CAP          2.0320     0.0000     1.4220 c          1 77X       0.591100
      4 OAQ          1.2430     0.0010     2.3420 o          1 77X      -0.643100
      5 NAH          3.3570     0.0000     1.6680 n          1 77X      -0.171800
      6 CAG          4.3280     0.0070     0.5650 c3         1 77X       0.045000
      7 CAF          5.1240     1.3170     0.6020 c3         1 77X       0.049900
      8 CAI          3.8670     0.0000     3.0510 c3         1 77X       0.157300
      9 CAD          4.9920     1.0070     3.1120 cc         1 77X      -0.332600
     10 CAC          5.5460     1.5910     2.0240 cd         1 77X      -0.260600
     11 NAB          6.5110     2.4260     2.4490 na         1 77X       0.470400
     12 NAA          6.5520     2.3680     3.8500 nd         1 77X      -0.658800
     13 CAE          5.6390     1.5090     4.2500 cc         1 77X       0.454800
     14 CAJ          5.3390     1.1430     5.6570 ca         1 77X      -0.120500
     15 CAK          6.3660     1.0780     6.5970 ca         1 77X      -0.087000
     16 CAL          6.0820     0.7370     7.9040 ca         1 77X      -0.104500
     17 CAM          4.7810     0.4590     8.2810 ca         1 77X      -0.097000
     18 CAN          3.7580     0.5210     7.3530 ca         1 77X      -0.104500
     19 CAO          4.0290     0.8670     6.0450 ca         1 77X      -0.087000
     20 H1          -0.3610     0.0000    -1.0210 hc         1 77X       0.009367
     21 H2          -0.3610    -0.8850     0.5100 hc         1 77X       0.009367
     22 H3          -0.3610     0.8840     0.5110 hc         1 77X       0.009367
     23 H4           1.8910     0.8850    -0.5110 hc         1 77X       0.025700
     24 H5           1.8910    -0.8850    -0.5110 hc         1 77X       0.025700
     25 H6           5.0190    -0.8130     0.7190 h1         1 77X       0.033700
     26 H7           3.7800    -0.0300    -0.3690 h1         1 77X       0.033700
     27 H8           4.4720     2.1200     0.2810 hc         1 77X       0.027700
     28 H9           6.0170     1.1890     0.0020 hc         1 77X       0.027700
     29 H10          4.2700    -0.9810     3.2700 h1         1 77X       0.045200
     30 H11          3.0740     0.3300     3.7110 h1         1 77X       0.045200
     31 H12          7.0930     2.9950     1.8680 hn         1 77X       0.144700
     32 H13          7.3860     1.2960     6.3020 ha         1 77X       0.118000
     33 H14          6.8800     0.6870     8.6350 ha         1 77X       0.103500
     34 H15          4.5620     0.1890     9.3080 ha         1 77X       0.101000
     35 H16          2.7400     0.3050     7.6550 ha         1 77X       0.103500
     36 H17          3.2270     0.9150     5.3190 ha         1 77X       0.118000
@<TRIPOS>BOND
     1     1     2 1   
     2     1    20 1   
     3     1    21 1   
     4     1    22 1   
     5     2     3 1   
     6     2    23 1   
     7     2    24 1   
     8     3     4 2   
     9     3     5 1   
    10     5     6 1   
    11     5     8 1   
    12     6     7 1   
    13     6    25 1   
    14     6    26 1   
    15     7    10 1   
    16     7    27 1   
    17     7    28 1   
    18     8     9 1   
    19     8    29 1   
    20     8    30 1   
    21     9    10 2   
    22     9    13 1   
    23    10    11 1   
    24    11    12 1   
    25    11    31 1   
    26    12    13 2   
    27    13    14 1   
    28    14    15 ar  
    29    14    19 ar  
    30    15    16 ar  
    31    15    32 1   
    32    16    17 ar  
    33    16    33 1   
    34    17    18 ar  
    35    17    34 1   
    36    18    19 ar  
    37    18    35 1   
    38    19    36 1   
@<TRIPOS>SUBSTRUCTURE
     1 77X         1 TEMP              0 ****  ****    0 ROOT
