@<TRIPOS>MOLECULE
77Z
   61    64     1     0     0
SMALL
bcc


@<TRIPOS>ATOM
      1 O55          0.0000     0.0000     0.0000 o          1 77Z      -0.352100
      2 C51          1.2120     0.0000     0.0000 c          1 77Z       0.287100
      3 N54          1.8870     0.0000     1.1670 nz         1 77Z       0.203600
      4 C50          1.9660    -0.0070    -1.3050 c3         1 77Z       0.153400
      5 O49          1.0370    -0.0130    -2.3910 os         1 77Z      -0.270900
      6 C19          1.5560    -0.0190    -3.6480 ca         1 77Z       0.058100
      7 C18          2.9320    -0.0210    -3.8340 ca         1 77Z      -0.142000
      8 C20          0.7130    -0.0310    -4.7500 ca         1 77Z       0.034000
      9 C14          1.2430    -0.0310    -6.0230 ca         1 77Z      -0.147500
     10 S15          0.1660    -0.0640    -7.4250 sy         1 77Z       1.035200
     11 O21         -0.7020     1.0540    -7.3000 o          1 77Z      -0.553300
     12 O22         -0.2940    -1.4030    -7.5560 o          1 77Z      -0.553300
     13 N16          1.1570     0.2370    -8.7320 n7         1 77Z      -0.607100
     14 C13          2.6180    -0.0140    -6.2170 ca         1 77Z       0.106600
     15 C17          3.4600    -0.0190    -5.1070 ca         1 77Z      -0.075000
     16 N12          3.1860     0.0260    -7.4910 nu         1 77Z      -0.427600
     17 C11          2.4840    -0.4080    -8.6970 c3         1 77Z       0.395700
     18 C9           2.3150    -1.9290    -8.6720 c3         1 77Z      -0.258700
     19 C8           3.6700    -2.5880    -8.6450 c          1 77Z       0.630500
     20 O24          4.1950    -2.8110    -7.5750 o          1 77Z      -0.664500
     21 C10          1.5780    -2.3790    -9.9180 c          1 77Z       0.620700
     22 O23          0.3910    -2.6270    -9.8980 o          1 77Z      -0.485100
     23 C4           2.3700    -2.4980   -11.1520 ca         1 77Z      -0.231600
     24 C5           1.7910    -2.3480   -12.4090 ca         1 77Z      -0.006000
     25 C6           2.5760    -2.4610   -13.5370 ca         1 77Z      -0.135000
     26 C3           3.7460    -2.7710   -11.0330 ca         1 77Z      -0.039400
     27 C2           4.5190    -2.8760   -12.1800 ca         1 77Z      -0.164000
     28 C1           3.9320    -2.7220   -13.4210 ca         1 77Z      -0.034000
     29 N7           4.3140    -2.9360    -9.7700 n          1 77Z       0.035000
     30 C33          5.6570    -3.5120    -9.6690 c3         1 77Z       0.009000
     31 C34          6.6970    -2.3900    -9.7170 c3         1 77Z      -0.051400
     32 C37          8.1000    -2.9910    -9.6120 c3         1 77Z      -0.048700
     33 C44          9.1420    -1.8840    -9.7850 c3         1 77Z       0.003900
     34 C40          8.2730    -3.6450    -8.2400 c3         1 77Z       0.003900
     35 HN54         2.5090     0.7830     1.1930 hn         1 77Z       0.247467
     36 HN5A         1.2380     0.0640     1.9270 hn         1 77Z       0.247467
     37 H50          2.5890     0.8770    -1.3670 h1         1 77Z       0.039200
     38 H50A         2.5880    -0.8920    -1.3570 h1         1 77Z       0.039200
     39 H18          3.5920    -0.0250    -2.9750 ha         1 77Z       0.095000
     40 H20         -0.3610    -0.0400    -4.6110 ha         1 77Z       0.131000
     41 HN16         0.8700     0.8200    -9.4930 hn         1 77Z       0.370800
     42 H17          4.5350    -0.0200    -5.2450 ha         1 77Z       0.127000
     43 HN12         3.5910     0.9280    -7.6470 hn         1 77Z       0.276800
     44 H11          3.0520    -0.1140    -9.5720 h2         1 77Z       0.051700
     45 H9           1.7530    -2.2220    -7.7940 hc         1 77Z       0.109700
     46 H5           0.7140    -2.2710   -12.5040 ha         1 77Z       0.124000
     47 H6           2.1310    -2.3470   -14.5180 ha         1 77Z       0.116000
     48 H2           5.5650    -3.1470   -12.1060 ha         1 77Z       0.128000
     49 H1           4.5400    -2.8050   -14.3140 ha         1 77Z       0.108000
     50 H33          5.7500    -4.0500    -8.7330 h1         1 77Z       0.050200
     51 H33A         5.8220    -4.1930   -10.4950 h1         1 77Z       0.050200
     52 H34          6.5320    -1.7100    -8.8900 hc         1 77Z       0.024700
     53 H34A         6.6030    -1.8510   -10.6520 hc         1 77Z       0.024700
     54 H37          8.2320    -3.7370   -10.3870 hc         1 77Z       0.026700
     55 H44         10.1360    -2.3130    -9.7330 hc         1 77Z       0.005700
     56 H44A         9.0240    -1.1510    -8.9970 hc         1 77Z       0.005700
     57 H44B         9.0050    -1.4060   -10.7480 hc         1 77Z       0.005700
     58 H40          9.3270    -3.8020    -8.0450 hc         1 77Z       0.005700
     59 H40A         7.7580    -4.5970    -8.2250 hc         1 77Z       0.005700
     60 H40B         7.8580    -2.9980    -7.4770 hc         1 77Z       0.005700
     61 H543         2.4160    -0.8460     1.2470 hn         1 77Z       0.247467
@<TRIPOS>BOND
     1     1     2 2   
     2     2     3 1   
     3     2     4 1   
     4     3    35 1   
     5     3    36 1   
     6     3    61 1   
     7     4     5 1   
     8     4    37 1   
     9     4    38 1   
    10     5     6 1   
    11     6     7 ar  
    12     6     8 ar  
    13     7    15 ar  
    14     7    39 1   
    15     8     9 ar  
    16     8    40 1   
    17     9    10 1   
    18     9    14 ar  
    19    10    11 2   
    20    10    12 2   
    21    10    13 1   
    22    13    17 1   
    23    13    41 1   
    24    14    15 ar  
    25    14    16 1   
    26    15    42 1   
    27    16    17 1   
    28    16    43 1   
    29    17    18 1   
    30    17    44 1   
    31    18    19 1   
    32    18    21 1   
    33    18    45 1   
    34    19    20 2   
    35    19    29 1   
    36    21    22 2   
    37    21    23 1   
    38    23    24 ar  
    39    23    26 ar  
    40    24    25 ar  
    41    24    46 1   
    42    25    28 ar  
    43    25    47 1   
    44    26    27 ar  
    45    26    29 1   
    46    27    28 ar  
    47    27    48 1   
    48    28    49 1   
    49    29    30 1   
    50    30    31 1   
    51    30    50 1   
    52    30    51 1   
    53    31    32 1   
    54    31    52 1   
    55    31    53 1   
    56    32    33 1   
    57    32    34 1   
    58    32    54 1   
    59    33    55 1   
    60    33    56 1   
    61    33    57 1   
    62    34    58 1   
    63    34    59 1   
    64    34    60 1   
@<TRIPOS>SUBSTRUCTURE
     1 77Z         1 TEMP              0 ****  ****    0 ROOT
