@<TRIPOS>MOLECULE
780
   41    44     1     0     0
SMALL
bcc


@<TRIPOS>ATOM
      1 C1          0.0180    0.0700   -0.0830 ca        1 780     -0.292900
      2 C2          1.4090    0.3020   -0.0460 ca        1 780     -0.105000
      3 C3          2.0970    0.3790    1.1570 ca        1 780     -0.151000
      4 C4          1.3770    0.2040    2.3410 ca        1 780      0.025000
      5 C5         -0.0800   -0.0370    2.3200 ca        1 780     -0.021000
      6 C6         -0.7350   -0.1000    1.0970 ca        1 780     -0.090000
      7 C7         -0.6720   -0.0020   -1.3740 ce        1 780      0.530400
      8 N1         -1.9250    0.5150   -1.4880 nh        1 780     -0.498600
      9 N2         -0.0470   -0.5780   -2.4370 nh        1 780     -0.482700
     10 N3          1.7290    0.2020    3.6720 na        1 780     -0.276600
     11 N4         -0.5620   -0.1620    3.6200 nc        1 780     -0.307600
     12 C8          0.5280   -0.0380    4.4430 cc        1 780      0.326500
     13 C1'         0.5830   -0.1170    5.8650 cd        1 780     -0.344200
     14 C2'         1.5770    0.5950    6.5760 cd        1 780     -0.032000
     15 C3'         1.6350    0.5740    7.9440 cc        1 780     -0.261000
     16 C4'         0.6790   -0.1770    8.6740 cc        1 780     -0.048000
     17 C5'        -0.3020   -0.8980    8.0500 cd        1 780     -0.182400
     18 C6'        -0.3950   -0.9290    6.5780 c         1 780      0.600500
     19 O6'        -1.2360   -1.6460    5.9930 o         1 780     -0.634100
     20 C1B        -1.2740   -1.6460    8.8430 ca        1 780     -0.005800
     21 C2B        -0.8760   -2.2830   10.0300 ca        1 780     -0.120500
     22 C3B        -1.8020   -2.9720   10.8110 ca        1 780     -0.140500
     23 C4B        -3.1380   -3.0390   10.4200 ca        1 780     -0.148000
     24 C5B        -3.5410   -2.4190    9.2380 ca        1 780     -0.140500
     25 C6B        -2.6200   -1.7300    8.4530 ca        1 780     -0.120500
     26 HC2         1.9720    0.4660   -0.9770 ha        1 780      0.119000
     27 HC3         3.1790    0.5730    1.1710 ha        1 780      0.144000
     28 HC6        -1.8110   -0.3240    1.0770 ha        1 780      0.146000
     29 HH11       -2.4760    0.4260   -2.3080 hn        1 780      0.312950
     30 HH12       -2.3370    0.9330   -0.6800 hn        1 780      0.312950
     31 HH21        0.8580   -0.9710   -2.2950 hn        1 780      0.312950
     32 HH22       -0.4480   -0.6220   -3.3430 hn        1 780      0.312950
     33 HN3         2.6340    0.3080    4.0450 hn        1 780      0.310700
     34 HC2'        2.3040    1.2150    6.0290 ha        1 780      0.086000
     35 HC3'        2.3990    1.1410    8.4890 ha        1 780      0.115000
     36 HC4'        0.7380   -0.1520    9.7750 ha        1 780      0.113000
     37 H2B         0.1780   -2.2480   10.3400 ha        1 780      0.140500
     38 H3B        -1.4740   -3.4660   11.7370 ha        1 780      0.118000
     39 H4B        -3.8670   -3.5810   11.0370 ha        1 780      0.117000
     40 H5B        -4.5920   -2.4770    8.9190 ha        1 780      0.118000
     41 H6B        -2.9350   -1.2640    7.5050 ha        1 780      0.140500
@<TRIPOS>BOND
     1    1    2 ar  
     2    1    6 ar  
     3    1    7 1   
     4    2    3 ar  
     5    2   26 1   
     6    3    4 ar  
     7    3   27 1   
     8    4    5 ar  
     9    4   10 2   
    10    5    6 ar  
    11    5   11 2   
    12    6   28 1   
    13    7    8 2   
    14    7    9 1   
    15    8   29 1   
    16    8   30 1   
    17    9   31 1   
    18    9   32 1   
    19   10   12 1   
    20   10   33 1   
    21   11   12 1   
    22   12   13 2   
    23   13   14 1   
    24   13   18 1   
    25   14   15 2   
    26   14   34 1   
    27   15   16 1   
    28   15   35 1   
    29   16   17 2   
    30   16   36 1   
    31   17   18 1   
    32   17   20 1   
    33   18   19 2   
    34   20   21 ar  
    35   20   25 ar  
    36   21   22 ar  
    37   21   37 1   
    38   22   23 ar  
    39   22   38 1   
    40   23   24 ar  
    41   23   39 1   
    42   24   25 ar  
    43   24   40 1   
    44   25   41 1   
@<TRIPOS>SUBSTRUCTURE
     1 780         1 TEMP              0 ****  ****    0 ROOT
