@<TRIPOS>MOLECULE
molecule
   42    45     1     0     0
SMALL
bcc


@<TRIPOS>ATOM
      1 C1           0.0000     0.0000     0.0000 ca         1 780      -0.107900
      2 C2           1.4000     0.0000     0.0000 ca         1 780      -0.059000
      3 C3           2.0930     0.0000     1.1760 ca         1 780      -0.120000
      4 C4           1.4120     0.0010     2.3880 ca         1 780       0.018000
      5 C5           0.0040     0.0020     2.4070 ca         1 780       0.018000
      6 C6          -0.6990     0.0070     1.2020 ca         1 780      -0.193000
      7 C7          -0.7360    -0.0010    -1.2810 ce         1 780       0.094800
      8 N1          -2.0690    -0.0000    -1.2830 nz         1 780      -0.677600
      9 N2          -0.0690    -0.0020    -2.4330 nv         1 780      -0.519100
     10 N3           1.8150     0.0010     3.7080 na         1 780      -0.210600
     11 N4          -0.3790     0.0020     3.7090 nc         1 780      -0.285600
     12 C8           0.6830     0.0020     4.4780 cc         1 780       0.203500
     13 C1'          0.6600     0.0020     5.9560 cd         1 780      -0.020000
     14 C2'          1.5760     0.7780     6.6700 cd         1 780      -0.150000
     15 C3'          1.5560     0.7770     8.0500 cc         1 780      -0.045000
     16 C4'          0.6330     0.0120     8.7360 cc         1 780      -0.130000
     17 C5'         -0.2880    -0.7670     8.0400 cd         1 780       0.014800
     18 C6'         -0.2810    -0.7710     6.6430 c          1 780       0.429100
     19 O6'         -1.1750    -1.5280     5.9580 o          1 780      -0.479100
     20 C1B         -1.2790    -1.5880     8.7810 ca         1 780      -0.078800
     21 C2B         -0.8590    -2.4290     9.8100 ca         1 780      -0.089000
     22 C3B         -1.7850    -3.1900    10.4950 ca         1 780      -0.130500
     23 C4B         -3.1260    -3.1180    10.1630 ca         1 780      -0.098000
     24 C5B         -3.5470    -2.2850     9.1410 ca         1 780      -0.130500
     25 C6B         -2.6310    -1.5140     8.4540 ca         1 780      -0.089000
     26 HC2          1.9380    -0.0050    -0.9410 ha         1 780       0.139000
     27 HC3          3.1770    -0.0000     1.1650 ha         1 780       0.153000
     28 HC6         -1.7820     0.0070     1.2040 ha         1 780       0.125000
     29 HH11        -2.4040    -0.8150    -0.8090 hn         1 780       0.444133
     30 HH12        -2.4010    -0.0030    -2.2270 hn         1 780       0.444133
     31 HH21        -0.5680    -0.0020    -3.3010 hn         1 780       0.301700
     32 HH22         0.9320    -0.0020    -2.4330 hn         1 780       0.301700
     33 HN3          2.7590     0.0000     4.0400 hn         1 780       0.322700
     34 HC2'         2.3030     1.3800     6.1400 ha         1 780       0.141000
     35 HC3'         2.2700     1.3810     8.5980 ha         1 780       0.155000
     36 HC4'         0.6260     0.0170     9.8190 ha         1 780       0.162000
     37 H2B          0.1900    -2.4860    10.0710 ha         1 780       0.139500
     38 H3B         -1.4610    -3.8440    11.2950 ha         1 780       0.141000
     39 H4B         -3.8490    -3.7190    10.7010 ha         1 780       0.140000
     40 H5B         -4.5980    -2.2310     8.8860 ha         1 780       0.141000
     41 H6B         -2.9610    -0.8620     7.6540 ha         1 780       0.139500
     42 H13         -2.4030     0.8230    -0.8220 hn         1 780       0.444133
@<TRIPOS>BOND
     1     1     2 ar  
     2     1     6 ar  
     3     1     7 1   
     4     2     3 ar  
     5     2    26 1   
     6     3     4 ar  
     7     3    27 1   
     8     4     5 ar  
     9     4    10 2   
    10     5     6 ar  
    11     5    11 2   
    12     6    28 1   
    13     7     8 1   
    14     7     9 2   
    15     8    29 1   
    16     8    30 1   
    17     9    31 1   
    18     9    32 1   
    19    10    12 1   
    20    10    33 1   
    21    11    12 1   
    22    12    13 2   
    23    13    14 1   
    24    13    18 1   
    25    14    15 2   
    26    14    34 1   
    27    15    16 1   
    28    15    35 1   
    29    16    17 2   
    30    16    36 1   
    31    17    18 1   
    32    17    20 1   
    33    18    19 2   
    34    20    21 ar  
    35    20    25 ar  
    36    21    22 ar  
    37    21    37 1   
    38    22    23 ar  
    39    22    38 1   
    40    23    24 ar  
    41    23    39 1   
    42    24    25 ar  
    43    24    40 1   
    44    25    41 1   
    45    42     8 1   
@<TRIPOS>SUBSTRUCTURE
     1 780         1 TEMP              0 ****  ****    0 ROOT
