@<TRIPOS>MOLECULE
781
   29    30     1     0     0
SMALL
bcc


@<TRIPOS>ATOM
      1 O1           0.0000     0.0000     0.0000 o          1 781      -0.627100
      2 C7           1.2130     0.0000     0.0000 c          1 781       0.558100
      3 C8           1.9670     0.0000     1.3050 c3         1 781      -0.098400
      4 C9           0.9730     0.0000     2.4680 c3         1 781       0.021900
      5 N            1.8860    -0.0060    -1.1680 ns         1 781      -0.042100
      6 C6           1.1900    -0.1220    -2.3750 ca         1 781      -0.068400
      7 C5           1.6610     0.5230    -3.4980 ca         1 781      -0.141000
      8 C4           0.9610     0.4030    -4.7090 ca         1 781       0.005000
      9 C3           1.4090     1.0460    -5.8770 ca         1 781      -0.120000
     10 C2           0.7070     0.9090    -7.0360 ca         1 781      -0.068000
     11 C1          -0.4520     0.1410    -7.0870 ca         1 781      -0.179000
     12 C           -0.9210    -0.5000    -5.9740 ca         1 781       0.154100
     13 O           -2.0540    -1.2450    -6.0400 oh         1 781      -0.494100
     14 C12         -0.2200    -0.3810    -4.7560 ca         1 781      -0.072000
     15 C11         -0.6710    -1.0240    -3.5920 ca         1 781      -0.052000
     16 C10          0.0280    -0.8980    -2.4330 ca         1 781      -0.112000
     17 H1           2.5890     0.8850     1.3620 hc         1 781       0.025200
     18 H2           2.5890    -0.8850     1.3620 hc         1 781       0.025200
     19 H3           0.3120     0.8530     2.3780 hc         1 781       0.009700
     20 H4           1.5140     0.0590     3.4040 hc         1 781       0.009700
     21 H5           0.3900    -0.9130     2.4440 hc         1 781       0.009700
     22 H6           2.8850     0.0480    -1.1690 hn         1 781       0.166500
     23 H7           2.6280     1.0100    -3.4770 ha         1 781       0.109000
     24 H8           2.3090     1.6480    -5.8540 ha         1 781       0.106000
     25 H9           1.0570     1.4060    -7.9320 ha         1 781       0.100000
     26 H10         -0.9910     0.0490    -8.0220 ha         1 781       0.111000
     27 H11         -2.7800    -0.6920    -6.2750 ho         1 781       0.405000
     28 H12         -1.5700    -1.6290    -3.6210 ha         1 781       0.118000
     29 H13         -0.3170    -1.4100    -1.5420 ha         1 781       0.138000
@<TRIPOS>BOND
     1     1     2 2   
     2     2     3 1   
     3     2     5 1   
     4     3     4 1   
     5     3    17 1   
     6     3    18 1   
     7     4    19 1   
     8     4    20 1   
     9     4    21 1   
    10     5     6 1   
    11     5    22 1   
    12     6     7 ar  
    13     6    16 ar  
    14     7     8 ar  
    15     7    23 1   
    16     8     9 ar  
    17     8    14 ar  
    18     9    10 ar  
    19     9    24 1   
    20    10    11 ar  
    21    10    25 1   
    22    11    12 ar  
    23    11    26 1   
    24    12    13 1   
    25    12    14 ar  
    26    13    27 1   
    27    14    15 ar  
    28    15    16 ar  
    29    15    28 1   
    30    16    29 1   
@<TRIPOS>SUBSTRUCTURE
     1 781         1 TEMP              0 ****  ****    0 ROOT
