@<TRIPOS>MOLECULE
molecule
   60    63     1     0     0
SMALL
bcc


@<TRIPOS>ATOM
      1 C1           0.0000     0.0000     0.0000 ca         1 782      -0.158000
      2 C2           1.3870     0.0000     0.0000 ca         1 782       0.096100
      3 C3           2.0740     0.0000     1.2030 ca         1 782      -0.160000
      4 O1           2.0690    -0.0000    -1.1760 oh         1 782      -0.525100
      5 O2          -7.2640    -5.4430     2.9800 o          1 782      -0.837800
      6 O3          -5.9950    -7.1710     3.5620 o          1 782      -0.837800
      7 C11         -1.1740    -1.4410     6.6110 ca         1 782      -0.129000
      8 C12         -1.8620    -1.3440     7.8050 ca         1 782      -0.122000
      9 C13         -2.0370    -0.1110     8.4070 ca         1 782      -0.084300
     10 C14         -1.5220     1.0280     7.8160 ca         1 782      -0.122000
     11 C15         -0.8310     0.9390     6.6230 ca         1 782      -0.129000
     12 C16         -2.7890    -0.0100     9.7080 c3         1 782      -0.028400
     13 C17         -1.8730     0.5820    10.7820 c3         1 782      -0.084600
     14 C18         -4.0090     0.8950     9.5230 c3         1 782      -0.084600
     15 C19         -1.9540    -0.9360     3.5540 ca         1 782      -0.117300
     16 C20         -1.7700    -2.2840     3.8110 ca         1 782      -0.116000
     17 C21         -2.8280    -3.1620     3.6970 ca         1 782      -0.146000
     18 C22         -4.0880    -2.6870     3.3210 ca         1 782      -0.003800
     19 C23         -4.2660    -1.3240     3.0620 ca         1 782      -0.146000
     20 C24         -3.2000    -0.4580     3.1860 ca         1 782      -0.116000
     21 C26         -5.2200    -3.6190     3.1910 ce         1 782      -0.185200
     22 C27         -5.0450    -4.9320     3.4410 cf         1 782      -0.136200
     23 C28         -6.1710    -5.8570     3.3130 c          1 782       0.864800
     24 C4           1.3820     0.0000     2.4030 ca         1 782      -0.056300
     25 C5           0.0020     0.0030     2.4020 ca         1 782      -0.060300
     26 C6          -0.6860     0.0070     1.1970 ca         1 782      -0.096000
     27 C7           2.1710    -0.0030     3.6870 c3         1 782      -0.030100
     28 C8           1.2740     0.4170     4.8530 c3         1 782       0.159800
     29 N1           0.0470    -0.3920     4.8120 nh         1 782      -0.594000
     30 C9          -0.7930     0.0170     3.6810 c3         1 782       0.286800
     31 C10         -0.6560    -0.2970     6.0160 ca         1 782       0.085600
     32 H1          -0.5430     0.0000    -0.9370 ha         1 782       0.138000
     33 H2           3.1580    -0.0000     1.2050 ha         1 782       0.133000
     34 H3           2.1790     0.8870    -1.4760 ho         1 782       0.410000
     35 H5          -1.0380    -2.4070     6.1400 ha         1 782       0.141000
     36 H6          -2.2670    -2.2350     8.2690 ha         1 782       0.129500
     37 H7          -1.6600     1.9920     8.2910 ha         1 782       0.129500
     38 H8          -0.4280     1.8330     6.1620 ha         1 782       0.141000
     39 H9          -3.1150    -0.9970    10.0140 hc         1 782       0.056700
     40 H10         -0.9130     0.0810    10.7530 hc         1 782       0.033867
     41 H11         -2.3240     0.4430    11.7570 hc         1 782       0.033867
     42 H12         -1.7340     1.6400    10.5960 hc         1 782       0.033867
     43 H13         -4.5630     0.5790     8.6470 hc         1 782       0.033867
     44 H14         -4.6450     0.8270    10.3970 hc         1 782       0.033867
     45 H15         -3.6820     1.9190     9.3930 hc         1 782       0.033867
     46 H16         -0.7930    -2.6500     4.1010 ha         1 782       0.125500
     47 H17         -2.6830    -4.2160     3.8990 ha         1 782       0.137500
     48 H18         -5.2390    -0.9490     2.7720 ha         1 782       0.137500
     49 H19         -3.3360     0.5980     2.9860 ha         1 782       0.125500
     50 H20         -1.8460     1.7810     3.0480 hc         1 782       0.044700
     51 H21         -2.0090     1.4150     4.7710 hc         1 782       0.044700
     52 H22         -0.4980     2.0930     4.1500 hc         1 782       0.044700
     53 H23         -6.1950    -3.2490     2.8950 ha         1 782       0.152000
     54 H24         -4.0710    -5.3010     3.7380 ha         1 782       0.104000
     55 H25         -1.7690     0.0070     1.1960 ha         1 782       0.151000
     56 H26          2.5530    -1.0000     3.8700 hc         1 782       0.054200
     57 H27          2.9970     0.6930     3.6010 hc         1 782       0.054200
     58 H28          1.7920     0.2450     5.7890 h1         1 782       0.039700
     59 H29          1.0220     1.4660     4.7570 h1         1 782       0.039700
     60 C25         -1.3250     1.4290     3.9310 c3         1 782      -0.125100
@<TRIPOS>BOND
     1     5    23 1
     2     6    23 1
     3    23    22 1
     4    22    21 2
     5    21    18 1
     6    18    19 ar
     7    18    17 ar
     8    19    20 ar
     9    17    16 ar
    10    14    12 1
    11    20    15 ar
    12    16    15 ar
    13     8     7 ar
    14     8     9 ar
    15    12     9 1
    16    12    13 1
    17     7    31 ar
    18    15    30 1
    19     9    10 ar
    20    31    29 1
    21    31    11 ar
    22    30    29 1
    23    30    25 1
    24    30    60 1
    25    10    11 ar
    26    29    28 1
    27    26    25 ar
    28    26     1 ar
    29    25    24 ar
    30     1     2 ar
    31    24    27 1
    32    24     3 ar
    33    28    27 1
    34     2     3 ar
    35     2     4 1
    36     1    32 1
    37     3    33 1
    38     4    34 1
    39     7    35 1
    40     8    36 1
    41    10    37 1
    42    11    38 1
    43    12    39 1
    44    13    40 1
    45    13    41 1
    46    13    42 1
    47    14    43 1
    48    14    44 1
    49    14    45 1
    50    16    46 1
    51    17    47 1
    52    19    48 1
    53    20    49 1
    54    60    50 1
    55    60    51 1
    56    60    52 1
    57    21    53 1
    58    22    54 1
    59    26    55 1
    60    27    56 1
    61    27    57 1
    62    28    58 1
    63    28    59 1
@<TRIPOS>SUBSTRUCTURE
     1 782         1 TEMP              0 ****  ****    0 ROOT
