@<TRIPOS>MOLECULE
782
   60    65     1     0     0
SMALL
bcc


@<TRIPOS>ATOM
      1 C1           0.0000     0.0000     0.0000 ca         1 782      -0.147000
      2 C2           1.3870     0.0000     0.0000 ca         1 782       0.068000
      3 C3           2.0740     0.0000     1.2030 ca         1 782      -0.150000
      4 O1           2.0690    -0.0000    -1.1760 oh         1 782      -0.262000
      5 O2          -7.2640    -5.4430     2.9800 o          1 782      -0.587000
      6 O3          -5.9950    -7.1710     3.5620 o          1 782      -0.587000
      7 C11         -1.1740    -1.4410     6.6110 ca         1 782      -0.113500
      8 C12         -1.8620    -1.3440     7.8050 ca         1 782      -0.093000
      9 C13         -2.0370    -0.1110     8.4070 ca         1 782      -0.088000
     10 C14         -1.5220     1.0280     7.8160 ca         1 782      -0.093000
     11 C15         -0.8310     0.9390     6.6230 ca         1 782      -0.113500
     12 C16         -2.7890    -0.0100     9.7080 c3         1 782      -0.040000
     13 C17         -1.8730     0.5820    10.7820 c3         1 782      -0.113000
     14 C18         -4.0090     0.8950     9.5230 c3         1 782      -0.113000
     15 C19         -1.9540    -0.9360     3.5540 c2         1 782      -0.190000
     16 C20         -1.7700    -2.2840     3.8110 c2         1 782      -0.057000
     17 C21         -2.8280    -3.1620     3.6970 c2         1 782      -0.210500
     18 C22         -4.0880    -2.6870     3.3210 c3         1 782       0.094000
     19 C23         -4.2660    -1.3240     3.0620 c2         1 782      -0.210500
     20 C24         -3.2000    -0.4580     3.1860 c2         1 782      -0.057000
     21 C26         -5.2200    -3.6190     3.1910 c2         1 782      -0.081000
     22 C27         -5.0450    -4.9320     3.4410 c2         1 782      -0.171000
     23 C28         -6.1710    -5.8570     3.3130 c3         1 782       0.501000
     24 C4           1.3820     0.0000     2.4030 ca         1 782      -0.049000
     25 C5           0.0020     0.0030     2.4020 ca         1 782      -0.067000
     26 C6          -0.6860     0.0070     1.1970 ca         1 782      -0.069000
     27 C7           2.1710    -0.0030     3.6870 c3         1 782      -0.049000
     28 C8           1.2740     0.4170     4.8530 c3         1 782      -0.108000
     29 N1           0.0470    -0.3920     4.8120 nh         1 782       0.019000
     30 C9          -0.7930     0.0170     3.6810 c3         1 782       0.084000
     31 C10         -0.6560    -0.2970     6.0160 ca         1 782      -0.063000
     32 H1          -0.5430     0.0000    -0.9370 ha         1 782       0.110000
     33 H2           3.1580     0.0000     1.2050 ha         1 782       0.109000
     34 H3           2.1950    -0.8880    -1.4660 ho         1 782       0.197000
     35 H5          -1.0380    -2.4070     6.1400 ha         1 782       0.123000
     36 H6          -2.2670    -2.2350     8.2690 ha         1 782       0.106000
     37 H7          -1.6600     1.9920     8.2910 ha         1 782       0.106000
     38 H8          -0.4280     1.8330     6.1620 ha         1 782       0.123000
     39 H9          -3.1150    -0.9970    10.0140 hc         1 782       0.070000
     40 H10         -1.7340     1.6400    10.5960 hc         1 782       0.042167
     41 H11         -0.9130     0.0810    10.7530 hc         1 782       0.042167
     42 H12         -2.3240     0.4430    11.7570 hc         1 782       0.042167
     43 H13         -4.5630     0.5790     8.6480 hc         1 782       0.042167
     44 H14         -4.6450     0.8270    10.3970 hc         1 782       0.042167
     45 H15         -3.6820     1.9190     9.3920 hc         1 782       0.042167
     46 H16         -0.7930    -2.6500     4.1010 ha         1 782       0.104000
     47 H17         -2.6830    -4.2160     3.8990 ha         1 782       0.122000
     48 H18         -5.2390    -0.9490     2.7720 ha         1 782       0.122000
     49 H19         -3.3360     0.5980     2.9860 ha         1 782       0.104000
     50 H20         -0.4980     2.0930     4.1500 hc         1 782       0.063000
     51 H21         -2.0090     1.4150     4.7710 hc         1 782       0.063000
     52 H22         -1.8460     1.7810     3.0480 hc         1 782       0.063000
     53 H23         -4.4340    -3.5050     2.4540 DU         1 782       0.026000
     54 H24         -5.4210    -5.3110     2.4990 DU         1 782       0.077000
     55 H25         -1.7690     0.0070     1.1960 ha         1 782       0.127000
     56 H26          2.9970     0.6930     3.6010 hc         1 782       0.060500
     57 H27          2.5530    -1.0000     3.8700 hc         1 782       0.060500
     58 H28          1.0210     1.4660     4.7570 h1         1 782       0.057000
     59 H29          1.7920     0.2450     5.7890 h1         1 782       0.057000
     60 C25         -1.3250     1.4290     3.9310 c3         1 782      -0.186000
@<TRIPOS>BOND
     1     1     2 1   
     2     1    26 1   
     3     1    32 1   
     4     2     3 1   
     5     2     4 1   
     6     3    24 1   
     7     3    33 1   
     8     4    34 1   
     9     5    23 1   
    10     6    23 1   
    11     7     8 1   
    12     7    31 1   
    13     7    35 1   
    14     8     9 1   
    15     8    36 1   
    16     9    10 1   
    17     9    12 1   
    18    10    11 1   
    19    10    37 1   
    20    11    31 1   
    21    11    38 1   
    22    12    13 1   
    23    12    14 1   
    24    12    39 1   
    25    13    40 1   
    26    13    41 1   
    27    13    42 1   
    28    14    43 1   
    29    14    44 1   
    30    14    45 1   
    31    15    16 1   
    32    15    20 1   
    33    15    30 1   
    34    16    17 1   
    35    16    46 1   
    36    17    18 1   
    37    17    47 1   
    38    18    19 1   
    39    18    21 1   
    40    18    53 1   
    41    19    20 1   
    42    19    48 1   
    43    20    49 1   
    44    21    22 1   
    45    21    53 1   
    46    22    23 1   
    47    22    54 1   
    48    23    54 1   
    49    24    25 1   
    50    24    27 1   
    51    25    26 1   
    52    25    30 1   
    53    26    55 1   
    54    27    28 1   
    55    27    56 1   
    56    27    57 1   
    57    28    29 1   
    58    28    58 1   
    59    28    59 1   
    60    29    30 1   
    61    29    31 1   
    62    30    60 1   
    63    50    60 1   
    64    51    60 1   
    65    52    60 1   
@<TRIPOS>SUBSTRUCTURE
     1 782         1 TEMP              0 ****  ****    0 ROOT
