@<TRIPOS>MOLECULE
molecule
   47    50     1     0     0
SMALL
bcc


@<TRIPOS>ATOM
      1 C1           0.0000     0.0000     0.0000 ca         1 783      -0.113900
      2 C2           1.4020     0.0000     0.0000 ca         1 783      -0.119000
      3 C3           2.0970     0.0000     1.1730 ca         1 783      -0.104000
      4 C4           1.4210     0.0020     2.3900 ca         1 783       0.055000
      5 C5           0.0110     0.0030     2.4050 ca         1 783      -0.043000
      6 C6          -0.6970     0.0020     1.2030 ca         1 783      -0.134000
      7 C7          -0.7380     0.0010    -1.2800 ce         1 783       0.061800
      8 N1          -0.0720    -0.0000    -2.4340 nz         1 783      -0.669600
      9 N2          -2.0700     0.0010    -1.2820 nv         1 783      -0.518100
     10 N3           1.8440     0.0020     3.6990 na         1 783      -0.164600
     11 CN4         -0.3850    -0.0020     3.8130 cc         1 783      -0.220000
     12 C8           0.7580     0.0030     4.5430 cc         1 783       0.029900
     13 C1'          0.8260     0.0040     6.0190 cd         1 783      -0.025000
     14 C2'         -0.0660     0.7790     6.7600 cd         1 783      -0.154000
     15 C3'         -0.0040     0.7800     8.1440 cc         1 783       0.182100
     16 O3'         -0.8760     1.5380     8.8610 os         1 783      -0.259900
     17 C3X         -0.5660     1.3300    10.2410 c3         1 783       0.092700
     18 C4'          0.9460     0.0150     8.8000 cc         1 783      -0.209000
     19 C5'          1.8390    -0.7690     8.0730 cd         1 783       0.031800
     20 C6'          1.7830    -0.7750     6.6770 c          1 783       0.422100
     21 O6'          2.6540    -1.5330     5.9630 o          1 783      -0.551100
     22 C1B          2.8510    -1.5930     8.7770 ca         1 783      -0.081800
     23 C2B          3.6540    -1.0220     9.7640 ca         1 783      -0.089000
     24 C3B          4.5930    -1.7930    10.4180 ca         1 783      -0.130000
     25 C4B          4.7400    -3.1300    10.0950 ca         1 783      -0.098000
     26 C5B          3.9480    -3.7010     9.1170 ca         1 783      -0.130000
     27 C6B          3.0010    -2.9410     8.4600 ca         1 783      -0.089000
     28 HC2          1.9380    -0.0010    -0.9410 ha         1 783       0.109000
     29 HC3          3.1810    -0.0000     1.1580 ha         1 783       0.150000
     30 HC6         -1.7800     0.0020     1.2070 ha         1 783       0.137000
     31 HH11         0.5030    -0.8180    -2.4870 hn         1 783       0.436467
     32 HH12         0.5040     0.8170    -2.4870 hn         1 783       0.436467
     33 HH21        -2.5690     0.0010    -2.1500 hn         1 783       0.299700
     34 HH22        -2.5720     0.0010    -0.4170 hn         1 783       0.299700
     35 HN3          2.8010     0.0050     3.9930 hn         1 783       0.329700
     36 HCN4        -1.3970    -0.0030     4.1980 ha         1 783       0.173000
     37 HC2'        -0.8040     1.3890     6.2520 ha         1 783       0.167000
     38 H31'        -1.2430     1.9110    10.8550 h1         1 783       0.060367
     39 H32'         0.4540     1.6410    10.4330 h1         1 783       0.060367
     40 H33'        -0.6730     0.2790    10.4800 h1         1 783       0.060367
     41 HC4'         0.9890     0.0190     9.8830 ha         1 783       0.171000
     42 H2B          3.5390     0.0250    10.0180 ha         1 783       0.138500
     43 H3B          5.2160    -1.3500    11.1860 ha         1 783       0.141500
     44 H4B          5.4800    -3.7300    10.6100 ha         1 783       0.141000
     45 H5B          4.0670    -4.7490     8.8690 ha         1 783       0.141500
     46 H6B          2.3810    -3.3900     7.6930 ha         1 783       0.138500
     47 H13         -0.7220     0.0130    -3.1950 hn         1 783       0.436467
@<TRIPOS>BOND
     1     1     2 ar
     2     1     6 ar
     3     1     7 1
     4     2     3 ar
     5     2    28 1
     6     3     4 ar
     7     3    29 1
     8     4     5 ar
     9     4    10 2
    10     5     6 ar
    11     5    11 2
    12     6    30 1
    13     7     8 1
    14     7     9 2
    15     8    31 1
    16     8    32 1
    17     9    33 1
    18     9    34 1
    19    10    12 1
    20    10    35 1
    21    11    12 1
    22    11    36 1
    23    12    13 2
    24    13    14 1
    25    13    20 1
    26    14    15 2
    27    14    37 1
    28    15    16 1
    29    15    18 1
    30    16    17 1
    31    17    38 1
    32    17    39 1
    33    17    40 1
    34    18    19 2
    35    18    41 1
    36    19    20 1
    37    19    22 1
    38    20    21 2
    39    22    23 ar
    40    22    27 ar
    41    23    24 ar
    42    23    42 1
    43    24    25 ar
    44    24    43 1
    45    25    26 ar
    46    25    44 1
    47    26    27 ar
    48    26    45 1
    49    27    46 1
    50    47     8 1
@<TRIPOS>SUBSTRUCTURE
     1 783         1 TEMP              0 ****  ****    0 ROOT
