@<TRIPOS>MOLECULE
783
   46    49     1     0     0
SMALL
bcc


@<TRIPOS>ATOM
      1 C1         -0.0740    0.1030    0.0660 ca        1 783     -0.306900
      2 C2          1.1630   -0.5850    0.0370 ca        1 783     -0.107000
      3 C3          1.8090   -0.9550    1.2020 ca        1 783     -0.146000
      4 C4          1.2170   -0.6230    2.4310 ca        1 783      0.050000
      5 C5         -0.0660    0.0970    2.4750 ca        1 783     -0.043000
      6 C6         -0.6870    0.4410    1.2910 ca        1 783     -0.081000
      7 C7         -0.7290    0.4660   -1.1890 ce        1 783      0.530400
      8 N1          0.0280    0.8270   -2.2630 nh        1 783     -0.504600
      9 N2         -2.0880    0.4360   -1.2680 nh        1 783     -0.488700
     10 N3          1.6200   -0.8460    3.7240 na        1 783     -0.201600
     11 CN4        -0.3810    0.2770    3.8550 cc        1 783     -0.316000
     12 C8          0.6620   -0.3100    4.6200 cc        1 783      0.158900
     13 C1'         0.7920   -0.3830    6.0380 cd        1 783     -0.326200
     14 C2'        -0.2160    0.2130    6.8260 cd        1 783     -0.017000
     15 C3'        -0.1530    0.1640    8.2010 cc        1 783     -0.061900
     16 O3'        -1.2170    0.6580    8.9560 os        1 783     -0.339900
     17 C3X        -0.9310    1.9170    9.5570 c3        1 783      0.117700
     18 C4'         0.9330   -0.4680    8.8580 cc        1 783     -0.047000
     19 C5'         1.9430   -1.0520    8.1370 cd        1 783     -0.184400
     20 C6'         1.9160   -1.0520    6.6710 c         1 783      0.591500
     21 O6'         2.8330   -1.6080    6.0040 o         1 783     -0.717100
     22 C1B         3.0580   -1.6810    8.8410 ca        1 783     -0.003800
     23 C2B         3.5740   -1.0930   10.0080 ca        1 783     -0.120000
     24 C3B         4.6170   -1.6960   10.7070 ca        1 783     -0.140000
     25 C4B         5.1640   -2.8950   10.2520 ca        1 783     -0.146000
     26 C5B         4.6650   -3.4830    9.0900 ca        1 783     -0.140000
     27 C6B         3.6220   -2.8840    8.3880 ca        1 783     -0.120000
     28 HC2         1.6140   -0.8760   -0.9230 ha        1 783      0.117000
     29 HC3         2.7620   -1.5030    1.1670 ha        1 783      0.149000
     30 HC6        -1.6280    1.0080    1.3260 ha        1 783      0.126000
     31 HH11       -0.3580    1.0220   -3.1550 hn        1 783      0.310950
     32 HH12        1.0160    0.8620   -2.1520 hn        1 783      0.310950
     33 HH21       -2.6000    0.1440   -0.4640 hn        1 783      0.310950
     34 HH22       -2.5910    0.7410   -2.0670 hn        1 783      0.310950
     35 HN3         2.4460   -1.3170    4.0350 hn        1 783      0.353700
     36 HCN4       -1.2610    0.7700    4.2500 ha        1 783      0.160000
     37 HC2'       -1.0690    0.7120    6.3420 ha        1 783      0.120000
     38 H31'       -1.8500    2.1550   10.1480 h1        1 783      0.026367
     39 H32'       -0.7530    2.6940    8.7740 h1        1 783      0.026367
     40 H33'       -0.0410    1.8400   10.2260 h1        1 783      0.026367
     41 HC4'        0.9360   -0.4840    9.9590 ha        1 783      0.127000
     42 H2B         3.1550   -0.1410   10.3680 ha        1 783      0.139000
     43 H3B         5.0100   -1.2230   11.6170 ha        1 783      0.119000
     44 H4B         5.9860   -3.3710   10.8040 ha        1 783      0.118000
     45 H5B         5.0980   -4.4250    8.7240 ha        1 783      0.119000
     46 H6B         3.2450   -3.3370    7.4580 ha        1 783      0.139000
@<TRIPOS>BOND
     1    1    2 ar  
     2    1    6 ar  
     3    1    7 1   
     4    2    3 ar  
     5    2   28 1   
     6    3    4 ar  
     7    3   29 1   
     8    4    5 ar  
     9    4   10 2   
    10    5    6 ar  
    11    5   11 2   
    12    6   30 1   
    13    7    8 2   
    14    7    9 1   
    15    8   31 1   
    16    8   32 1   
    17    9   33 1   
    18    9   34 1   
    19   10   12 1   
    20   10   35 1   
    21   11   12 1   
    22   11   36 1   
    23   12   13 2   
    24   13   14 1   
    25   13   20 1   
    26   14   15 2   
    27   14   37 1   
    28   15   16 1   
    29   15   18 1   
    30   16   17 1   
    31   17   38 1   
    32   17   39 1   
    33   17   40 1   
    34   18   19 2   
    35   18   41 1   
    36   19   20 1   
    37   19   22 1   
    38   20   21 2   
    39   22   23 ar  
    40   22   27 ar  
    41   23   24 ar  
    42   23   42 1   
    43   24   25 ar  
    44   24   43 1   
    45   25   26 ar  
    46   25   44 1   
    47   26   27 ar  
    48   26   45 1   
    49   27   46 1   
@<TRIPOS>SUBSTRUCTURE
     1 783         1 TEMP              0 ****  ****    0 ROOT
