@<TRIPOS>MOLECULE
molecule
   62    65     1     0     0
SMALL
bcc


@<TRIPOS>ATOM
      1 O18          0.0000     0.0000     0.0000 o          1 784      -0.562500
      2 C11          1.2120     0.0000     0.0000 c          1 784       0.711500
      3 N12          1.9860     0.0000     1.0930 n          1 784      -0.493400
      4 C19          1.4380     0.0010     2.4510 c3         1 784       0.110000
      5 C21          1.2450    -1.4410     2.9250 c3         1 784      -0.134400
      6 C23          0.6730    -1.4400     4.3440 c3         1 784       0.107800
      7 N29          0.4880    -2.8240     4.7990 n4         1 784      -0.576800
      8 C32          1.7830    -3.5180     4.7940 c3         1 784       0.092433
      9 C31         -0.4410    -3.5160     3.8970 c3         1 784       0.092433
     10 C30         -0.0610    -2.8230     6.1620 c3         1 784       0.092433
     11 C5           2.0870    -0.0010    -1.2330 c3         1 784      -0.157700
     12 C2           3.5260    -0.0040    -0.6530 c3         1 784      -0.155700
     13 C6           3.3000     0.0040     0.8420 c          1 784       0.717500
     14 O13          4.1740     0.0230     1.6830 o          1 784      -0.604500
     15 C7           1.9350     1.3490    -1.9630 c3         1 784       0.151500
     16 C14          2.4100     1.1770    -3.4190 c3         1 784      -0.109400
     17 C15          3.3510     2.3650    -3.6930 c3         1 784      -0.114400
     18 C8           3.3510     3.1880    -2.3880 c3         1 784       0.124800
     19 N3           2.9420     2.2430    -1.3160 n3         1 784      -0.667600
     20 C1           4.1080     1.3580    -1.0900 c3         1 784       0.180800
     21 C4           4.9930     1.9240    -0.0090 ca         1 784      -0.022300
     22 C10          6.3680     1.8330    -0.1270 ca         1 784      -0.091000
     23 C17          7.1830     2.3490     0.8600 ca         1 784      -0.082500
     24 C20          6.6180     2.9640     1.9760 ca         1 784      -0.188900
     25 C22          7.4880     3.5200     3.0390 ce         1 784       0.538800
     26 N25          8.7830     3.4350     2.9310 n2         1 784      -0.675100
     27 N24          6.9270     4.1260     4.1410 nz         1 784      -0.800600
     28 C16          5.2310     3.0530     2.0890 ca         1 784      -0.082500
     29 C9           4.4260     2.5380     1.0940 ca         1 784      -0.091000
     30 H191         0.4830     0.5130     2.4540 h1         1 784       0.078700
     31 H192         2.1230     0.5110     3.1160 h1         1 784       0.078700
     32 H211         0.5580    -1.9510     2.2600 hc         1 784       0.075700
     33 H212         2.1990    -1.9530     2.9210 hc         1 784       0.075700
     34 H231        -0.2820    -0.9280     4.3480 hx         1 784       0.101200
     35 H232         1.3590    -0.9290     5.0090 hx         1 784       0.101200
     36 H321         2.0530    -3.7700     3.7760 hx         1 784       0.101589
     37 H322         2.5410    -2.8710     5.2190 hx         1 784       0.101589
     38 H323         1.7090    -4.4240     5.3840 hx         1 784       0.101589
     39 H311         0.0720    -3.7760     2.9790 hx         1 784       0.101589
     40 H312        -0.8050    -4.4180     4.3750 hx         1 784       0.101589
     41 H313        -1.2770    -2.8650     3.6710 hx         1 784       0.101589
     42 H301         0.6300    -2.3220     6.8290 hx         1 784       0.101589
     43 H302        -0.2080    -3.8440     6.4930 hx         1 784       0.101589
     44 H303        -1.0110    -2.3010     6.1680 hx         1 784       0.101589
     45 H5           1.8980    -0.8500    -1.8780 hc         1 784       0.118700
     46 H2           4.1150    -0.8480    -0.9910 hc         1 784       0.115700
     47 H7           0.9290     1.7450    -1.8980 h1         1 784       0.115700
     48 H141         1.5630     1.2090    -4.0940 hc         1 784       0.064700
     49 H142         2.9470     0.2420    -3.5290 hc         1 784       0.064700
     50 H151         2.9720     2.9630    -4.5130 hc         1 784       0.065200
     51 H152         4.3510     2.0090    -3.9100 hc         1 784       0.065200
     52 H8C1         2.6380     4.0010    -2.4610 h1         1 784       0.072200
     53 H8C2         4.3440     3.5710    -2.1890 h1         1 784       0.072200
     54 H1           4.6660     1.2410    -2.0100 h1         1 784       0.081700
     55 H10          6.8060     1.3550    -0.9950 ha         1 784       0.162000
     56 H17          8.2600     2.2770     0.7660 ha         1 784       0.137500
     57 H25          9.3720     3.8100     3.6480 hn         1 784       0.437400
     58 H241         7.6520     4.4550     4.7470 hn         1 784       0.464800
     59 H242         6.3560     3.4660     4.6310 hn         1 784       0.464800
     60 H16          4.7860     3.5310     2.9540 ha         1 784       0.137500
     61 H9           3.3490     2.6060     1.1800 ha         1 784       0.162000
     62 H243         6.3630     4.8990     3.8460 hn         1 784       0.464800
@<TRIPOS>BOND
     1     1     2 2   
     2     2     3 1   
     3     2    11 1   
     4     3     4 1   
     5     3    13 1   
     6     4     5 1   
     7     4    30 1   
     8     4    31 1   
     9     5     6 1   
    10     5    32 1   
    11     5    33 1   
    12     6     7 1   
    13     6    34 1   
    14     6    35 1   
    15     7     8 1   
    16     7     9 1   
    17     7    10 1   
    18     8    36 1   
    19     8    37 1   
    20     8    38 1   
    21     9    39 1   
    22     9    40 1   
    23     9    41 1   
    24    10    42 1   
    25    10    43 1   
    26    10    44 1   
    27    11    12 1   
    28    11    15 1   
    29    11    45 1   
    30    12    13 1   
    31    12    20 1   
    32    12    46 1   
    33    13    14 2   
    34    15    16 1   
    35    15    19 1   
    36    15    47 1   
    37    16    17 1   
    38    16    48 1   
    39    16    49 1   
    40    17    18 1   
    41    17    50 1   
    42    17    51 1   
    43    18    19 1   
    44    18    52 1   
    45    18    53 1   
    46    19    20 1   
    47    20    21 1   
    48    20    54 1   
    49    21    22 ar  
    50    21    29 ar  
    51    22    23 ar  
    52    22    55 1   
    53    23    24 ar  
    54    23    56 1   
    55    24    25 1   
    56    24    28 ar  
    57    25    26 2   
    58    25    27 1   
    59    26    57 1   
    60    27    58 1   
    61    27    59 1   
    62    28    29 ar  
    63    28    60 1   
    64    29    61 1   
    65    62    27 1   
@<TRIPOS>SUBSTRUCTURE
     1 784         1 TEMP              0 ****  ****    0 ROOT
