@<TRIPOS>MOLECULE
785
   35    37     1     0     0
SMALL
bcc


@<TRIPOS>ATOM
      1 C1         -0.0170    0.1080    0.1150 ca        1 785     -0.300900
      2 C2          1.3060   -0.3800    0.0520 ca        1 785     -0.100000
      3 C3          2.0280   -0.6640    1.2000 ca        1 785     -0.144000
      4 C4          1.4140   -0.4440    2.4380 ca        1 785      0.032000
      5 C5          0.0300    0.0690    2.5210 ca        1 785     -0.031000
      6 C6         -0.6630    0.3350    1.3490 ca        1 785     -0.081000
      7 C7         -0.7470    0.3830   -1.1250 ce        1 785      0.531400
      8 N1         -2.0780    0.1120   -1.1880 nh        1 785     -0.499100
      9 N2         -0.0810    0.9010   -2.1930 nh        1 785     -0.483200
     10 N3          1.8290   -0.6050    3.7370 na        1 785     -0.240600
     11 N4         -0.3430    0.1990    3.8570 nc        1 785     -0.364600
     12 C8          0.7470   -0.2100    4.5910 cc        1 785      0.313500
     13 C1'         0.8500   -0.2590    6.0180 cd        1 785     -0.326200
     14 C2'        -0.2620    0.1520    6.7870 cd        1 785      0.024000
     15 C3'        -0.2090    0.1150    8.1640 cc        1 785     -0.085900
     16 O3'        -1.3640    0.3760    8.9050 os        1 785     -0.348900
     17 C3X        -1.5200    1.6770    9.3910 c3        1 785      0.801700
     18 FV'        -1.5610    2.6140    8.4080 f         1 785     -0.231633
     19 FW'        -2.7170    1.6800   10.0360 f         1 785     -0.231633
     20 FX'        -0.5550    2.0270   10.2810 f         1 785     -0.231633
     21 C4'         0.9600   -0.3210    8.8530 cc        1 785     -0.045000
     22 C5'         2.0440   -0.7200    8.1380 cd        1 785     -0.274200
     23 C6'         2.0590   -0.7190    6.6800 c         1 785      0.583500
     24 O6'         3.0920   -1.1030    6.0650 o         1 785     -0.708100
     25 HC2         1.7780   -0.5820   -0.9210 ha        1 785      0.121000
     26 HC3         3.0540   -1.0560    1.1380 ha        1 785      0.152000
     27 HC6        -1.6790    0.7510    1.4060 ha        1 785      0.142000
     28 HH11       -2.6420    0.3410   -1.9720 hn        1 785      0.312950
     29 HH12       -2.5180   -0.2810   -0.3840 hn        1 785      0.312950
     30 HH21        0.8870    1.1100   -2.0890 hn        1 785      0.312950
     31 HH22       -0.5100    1.0620   -3.0730 hn        1 785      0.312950
     32 HN3         2.7080   -0.9350    4.0790 hn        1 785      0.359700
     33 HC2'       -1.1820    0.5050    6.2930 ha        1 785      0.146000
     34 HC4'        0.9510   -0.3200    9.9530 ha        1 785      0.131000
     35 HC5'        2.9630   -1.0640    8.6320 ha        1 785      0.137000
@<TRIPOS>BOND
     1    1    2 ar  
     2    1    6 ar  
     3    1    7 1   
     4    2    3 ar  
     5    2   25 1   
     6    3    4 ar  
     7    3   26 1   
     8    4    5 ar  
     9    4   10 2   
    10    5    6 ar  
    11    5   11 2   
    12    6   27 1   
    13    7    8 2   
    14    7    9 1   
    15    8   28 1   
    16    8   29 1   
    17    9   30 1   
    18    9   31 1   
    19   10   12 1   
    20   10   32 1   
    21   11   12 1   
    22   12   13 2   
    23   13   14 1   
    24   13   23 1   
    25   14   15 2   
    26   14   33 1   
    27   15   16 1   
    28   15   21 1   
    29   16   17 1   
    30   17   18 1   
    31   17   19 1   
    32   17   20 1   
    33   21   22 2   
    34   21   34 1   
    35   22   23 1   
    36   22   35 1   
    37   23   24 2   
@<TRIPOS>SUBSTRUCTURE
     1 785         1 TEMP              0 ****  ****    0 ROOT
