@<TRIPOS>MOLECULE
molecule
   36    38     1     0     0
SMALL
bcc


@<TRIPOS>ATOM
      1 C1           0.0000     0.0000     0.0000 ca         1 785      -0.075900
      2 C2           1.3990     0.0000     0.0000 ca         1 785      -0.075000
      3 C3           2.0920     0.0000     1.1770 ca         1 785      -0.128000
      4 C4           1.4110    -0.0000     2.3880 ca         1 785       0.027000
      5 C5           0.0030     0.0010     2.4070 ca         1 785       0.005000
      6 C6          -0.7000     0.0060     1.2020 ca         1 785      -0.236000
      7 C7          -0.7370    -0.0000    -1.2820 ce         1 785       0.151800
      8 N1          -2.0690    -0.0000    -1.2840 nz         1 785      -0.690600
      9 N2          -0.0690     0.0000    -2.4340 nv         1 785      -0.502100
     10 N3           1.8130    -0.0010     3.7080 na         1 785      -0.178600
     11 N4          -0.3810    -0.0000     3.7080 nc         1 785      -0.340600
     12 C8           0.6800    -0.0020     4.4780 cc         1 785       0.244500
     13 C1'          0.6580    -0.0030     5.9550 cd         1 785      -0.048000
     14 C2'         -0.2810     0.7690     6.6430 cd         1 785      -0.105000
     15 C3'         -0.2970     0.7620     8.0260 cc         1 785       0.125100
     16 O3'         -1.2110     1.5140     8.6970 os         1 785      -0.287900
     17 C3X         -0.9780     1.3000    10.0910 c3         1 785       0.779700
     18 FV'          0.3240     1.6980    10.4110 f          1 785      -0.192300
     19 FW'         -1.8920     2.0510    10.8370 f          1 785      -0.192300
     20 FX'         -1.1360    -0.0580    10.3880 f          1 785      -0.192300
     21 C4'          0.6180    -0.0090     8.7320 cc         1 785      -0.179000
     22 C5'          1.5500    -0.7740     8.0570 cd         1 785      -0.109000
     23 C6'          1.5740    -0.7810     6.6720 c          1 785       0.430100
     24 O6'          2.4900    -1.5350     6.0110 o          1 785      -0.585100
     25 HC2          2.1810    -0.0010    -0.7500 ha         1 785       0.161000
     26 HC3          3.1750     0.0090     1.2080 ha         1 785       0.160000
     27 HC6         -1.7200     0.0110     1.5680 ha         1 785       0.175000
     28 HH11        -2.4050     0.8220    -0.8220 hn         1 785       0.453467
     29 HH12        -2.4040    -0.8130    -0.8060 hn         1 785       0.453467
     30 HH21        -0.5680     0.0000    -3.3020 hn         1 785       0.309200
     31 HH22         0.9320     0.0010    -2.4330 hn         1 785       0.309200
     32 HN3          2.7570    -0.0020     4.0400 hn         1 785       0.344700
     33 HC2'        -1.0370     1.3180     6.0950 ha         1 785       0.173000
     34 HC4'         0.6000    -0.0110     9.8150 ha         1 785       0.187000
     35 HC5'         2.2640    -1.3700     8.6130 ha         1 785       0.177000
     36 H13         -2.4010    -0.0030    -2.2290 hn         1 785       0.453467
@<TRIPOS>BOND
     1     1     2 ar
     2     1     6 ar
     3     1     7 1
     4     2     3 ar
     5     2    25 1
     6     3     4 ar
     7     3    26 1
     8     4     5 ar
     9     4    10 2
    10     5     6 ar
    11     5    11 2
    12     6    27 1
    13     7     8 1
    14     7     9 2
    15     8    28 1
    16     8    29 1
    17     9    30 1
    18     9    31 1
    19    10    12 1
    20    10    32 1
    21    11    12 1
    22    12    13 2
    23    13    14 1
    24    13    23 1
    25    14    15 2
    26    14    33 1
    27    15    16 1
    28    15    21 1
    29    16    17 1
    30    17    18 1
    31    17    19 1
    32    17    20 1
    33    21    22 2
    34    21    34 1
    35    22    23 1
    36    22    35 1
    37    23    24 2
    38    36     8 1
@<TRIPOS>SUBSTRUCTURE
     1 785         1 TEMP              0 ****  ****    0 ROOT
