@<TRIPOS>MOLECULE
molecule
   68    71     1     0     0
SMALL
bcc


@<TRIPOS>ATOM
      1 C1           0.0000     0.0000     0.0000 c3         1 786       0.091000
      2 N2           1.4740     0.0000     0.0000 n          1 786      -0.483800
      3 C3           1.9450     0.0000     1.3920 c3         1 786       0.070400
      4 C4           0.6970    -0.0280     2.2990 c3         1 786      -0.076400
      5 C5          -0.3960    -0.6130     1.3660 c3         1 786      -0.096400
      6 C6           2.2590     0.0000    -1.0950 c          1 786       0.661100
      7 O7           3.4670     0.0010    -0.9770 o          1 786      -0.585100
      8 C8           1.6380     0.0010    -2.4690 c3         1 786       0.098100
      9 C9           0.8730     1.3080    -2.6810 c3         1 786       0.089100
     10 C10          0.3550     1.3620    -4.0950 c          1 786       0.631100
     11 O11          2.6640    -0.1160    -3.4560 oh         1 786      -0.551800
     12 O12          0.7690     2.2060    -4.8610 o          1 786      -0.580100
     13 N13         -0.5700     0.4720    -4.5100 ns         1 786      -0.587900
     14 O14          1.7460     2.4140    -2.4510 oh         1 786      -0.549800
     15 C15         -1.0720     0.5250    -5.8850 c3         1 786       0.164000
     16 C16         -1.5720    -0.8390    -6.2890 ca         1 786      -0.110300
     17 C17         -1.3260    -1.3120    -7.5640 ca         1 786      -0.102000
     18 C18         -1.7820    -2.5610    -7.9380 ca         1 786      -0.141000
     19 C19         -2.4870    -3.3410    -7.0320 ca         1 786       0.044800
     20 C20         -2.7320    -2.8630    -5.7530 ca         1 786      -0.141000
     21 C21         -2.2700    -1.6150    -5.3830 ca         1 786      -0.102000
     22 N22         -2.9520    -4.6090    -7.4090 na         1 786       0.146300
     23 C23          2.7510     1.2460     1.6610 cc         1 786       0.544600
     24 N24         -2.7720    -5.2150    -8.6590 nc         1 786      -0.506800
     25 C25         -3.3450    -6.3910    -8.6300 cd         1 786       0.342200
     26 C26         -3.9080    -6.5730    -7.3620 cd         1 786      -0.342300
     27 C27         -3.6480    -5.4660    -6.6280 cc         1 786      -0.109300
     28 N28          2.3600     2.4450     1.2690 nc         1 786      -0.780000
     29 C29          3.1410     3.4390     1.5610 cd         1 786       0.749300
     30 S30          4.5140     2.8780     2.4100 ss         1 786      -0.125300
     31 C31          3.9100     1.2260     2.3190 cd         1 786      -0.400900
     32 N32          2.8970     4.7640     1.2330 nu         1 786      -0.889900
     33 C33          3.8550     5.8020     1.6170 c3         1 786       0.219100
     34 C34         -2.2200     1.5340    -5.9690 c3         1 786      -0.107100
     35 S35          4.7020    -0.2040     2.9780 sy         1 786       1.231300
     36 O36          5.4900     0.2960     4.0490 o          1 786      -0.630800
     37 O37          3.6370    -1.1160     3.2150 o          1 786      -0.630800
     38 C38          5.7600    -0.7970     1.6300 c3         1 786      -0.222300
     39 H1          -0.3760    -0.6130    -0.8100 h1         1 786       0.041200
     40 H1A         -0.3760     1.0130    -0.0800 h1         1 786       0.041200
     41 H3           2.5490    -0.8810     1.5740 h1         1 786       0.102700
     42 H4           0.8590    -0.6770     3.1510 hc         1 786       0.072700
     43 H4A          0.4320     0.9740     2.6160 hc         1 786       0.072700
     44 H5          -1.3810    -0.2780     1.6680 hc         1 786       0.057200
     45 H5A         -0.3380    -1.6950     1.3340 hc         1 786       0.057200
     46 H8           0.9560    -0.8360    -2.5560 h1         1 786       0.041700
     47 H9           0.0400     1.3550    -1.9900 h1         1 786       0.050700
     48 HO11         2.9790    -1.0050    -3.4780 ho         1 786       0.411000
     49 HN13        -0.9430    -0.1970    -3.8660 hn         1 786       0.308500
     50 HO14         1.2850     3.2190    -2.6210 ho         1 786       0.414000
     51 H15         -0.2740     0.8300    -6.5500 h1         1 786       0.092700
     52 H17         -0.7760    -0.7030    -8.2710 ha         1 786       0.136500
     53 H18         -1.5890    -2.9320    -8.9380 ha         1 786       0.150000
     54 H20         -3.2810    -3.4700    -5.0430 ha         1 786       0.150000
     55 H21         -2.4610    -1.2410    -4.3840 ha         1 786       0.136500
     56 H25         -3.3790    -7.1010    -9.4480 h4         1 786       0.053100
     57 H26         -4.4510    -7.4480    -7.0250 ha         1 786       0.159000
     58 H27         -3.9490    -5.2950    -5.6020 h4         1 786       0.172000
     59 HN32         2.0530     5.0140     0.7570 hn         1 786       0.458800
     60 H33          3.5020     6.7660     1.2710 h1         1 786       0.046700
     61 H33A         4.8180     5.5890     1.1690 h1         1 786       0.046700
     62 H33B         3.9560     5.8200     2.6960 h1         1 786       0.046700
     63 H34         -2.6110     1.7200    -4.9760 hc         1 786       0.045700
     64 H34A        -3.0070     1.1340    -6.5970 hc         1 786       0.045700
     65 H34B        -1.8550     2.4610    -6.3930 hc         1 786       0.045700
     66 H38          5.9690     0.0190     0.9490 h1         1 786       0.104700
     67 H38A         5.2530    -1.5920     1.0960 h1         1 786       0.104700
     68 H38B         6.6900    -1.1720     2.0400 h1         1 786       0.104700
@<TRIPOS>BOND
     1     5     1 1
     2     1     2 1
     3     1    39 1
     4     1    40 1
     5     3     2 1
     6     2     6 1
     7     4     3 1
     8    23     3 1
     9     3    41 1
    10     4     5 1
    11     4    42 1
    12     4    43 1
    13     5    44 1
    14     5    45 1
    15     6     7 2
    16     6     8 1
    17     8     9 1
    18     8    11 1
    19     8    46 1
    20     9    14 1
    21     9    10 1
    22     9    47 1
    23    12    10 2
    24    10    13 1
    25    11    48 1
    26    13    15 1
    27    13    49 1
    28    14    50 1
    29    15    34 1
    30    15    16 1
    31    15    51 1
    32    21    16 ar
    33    16    17 ar
    34    17    18 ar
    35    17    52 1
    36    19    18 ar
    37    18    53 1
    38    20    19 ar
    39    19    22 1
    40    21    20 ar
    41    20    54 1
    42    21    55 1
    43    22    27 1
    44    22    24 1
    45    31    23 2
    46    23    28 1
    47    24    25 2
    48    26    25 1
    49    25    56 1
    50    27    26 2
    51    26    57 1
    52    27    58 1
    53    29    28 2
    54    30    29 1
    55    29    32 1
    56    31    30 1
    57    35    31 1
    58    32    33 1
    59    32    59 1
    60    33    60 1
    61    33    61 1
    62    33    62 1
    63    34    63 1
    64    34    64 1
    65    34    65 1
    66    36    35 2
    67    35    38 1
    68    35    37 2
    69    38    66 1
    70    38    67 1
    71    38    68 1
@<TRIPOS>SUBSTRUCTURE
     1 786         1 TEMP              0 ****  ****    0 ROOT
