@<TRIPOS>MOLECULE
787
   21    20     1     0     0
SMALL
bcc


@<TRIPOS>ATOM
      1 C1       -109.9120  260.5730  -16.0430 ca        1 787     -0.492000
      2 C2       -109.6940  261.0010  -14.7260 ca        1 787     -0.091000
      3 C3       -110.1820  262.1900  -14.2550 ca        1 787     -0.270000
      4 C4       -110.9700  263.1120  -15.0790 ca        1 787      0.050000
      5 C5       -111.1690  262.6250  -16.4400 ca        1 787     -0.270000
      6 C6       -110.6680  261.4340  -16.8770 ca        1 787     -0.091000
      7 C7       -111.4350  264.2750  -14.5770 c2        1 787     -0.817000
      8 P8        477.8330-1117.5290   79.5130 p3        1 787      2.361000
      9 P9       -112.3660  265.6400  -15.1050 p5        1 787      1.673500
     10 O11      -111.4550  266.8430  -14.8690 o         1 787     -0.994833
     11 O12      -112.7620  265.4860  -16.5670 o         1 787     -0.994833
     12 O13      -113.5740  265.6710  -14.1720 o         1 787     -0.994833
     13 O14       477.6870-1117.9740   80.9100 o         1 787     -1.120000
     14 O15       476.6650-1117.5300   78.6140 o         1 787     -1.120000
     15 O16       479.1460-1117.0840   79.0140 o         1 787     -1.120000
     16 H1       -109.5210  259.6230  -16.4130 ha        1 787      0.030000
     17 H2       -109.1060  260.3490  -14.0530 ha        1 787      0.011500
     18 H3       -109.9890  262.4910  -13.2170 ha        1 787      0.095500
     19 H5       -111.7540  263.2800  -17.1060 ha        1 787      0.095500
     20 H6       -110.8490  261.1130  -17.9170 ha        1 787      0.011500
     21 H7       -111.1720  264.4580  -13.5170 ha        1 787      0.049000
@<TRIPOS>BOND
     1    1    2 1   
     2    1    6 1   
     3    1   16 1   
     4    2    3 1   
     5    2   17 1   
     6    3    4 1   
     7    3   18 1   
     8    4    5 1   
     9    4    7 1   
    10    5    6 1   
    11    5   19 1   
    12    6   20 1   
    13    7    9 1   
    14    7   21 1   
    15    8   13 1   
    16    8   14 1   
    17    8   15 1   
    18    9   10 1   
    19    9   11 1   
    20    9   12 1   
@<TRIPOS>SUBSTRUCTURE
     1 787         1 TEMP              0 ****  ****    0 ROOT
