@<TRIPOS>MOLECULE
molecule
   21    21     1     0     0
SMALL
bcc


@<TRIPOS>ATOM
      1 C1           0.0000     0.0000     0.0000 ca         1 787      -0.272000
      2 C2           1.3820     0.0000     0.0000 ca         1 787      -0.172000
      3 C3           2.0730     0.0000     1.1970 ca         1 787      -0.126500
      4 C4           1.3830     0.0010     2.3940 ca         1 787       0.125700
      5 C5          -0.0000    -0.0050     2.3950 ca         1 787      -0.126500
      6 C6          -0.6910     0.0000     1.1970 ca         1 787      -0.172000
      7 C7           2.1360     0.0000     3.6990 c3         1 787      -0.317800
      8 P8           1.6950    -1.4880     4.6560 p5         1 787       1.111700
      9 P9           1.6960     1.4890     4.6550 p5         1 787       1.111700
     10 O11          2.5020     1.4890     6.0500 o          1 787      -0.938667
     11 O12          2.0860     2.8040     3.8110 o          1 787      -0.938667
     12 O13          0.2410     1.4900     4.9260 o          1 787      -0.938667
     13 O14          2.5000    -1.4870     6.0500 o          1 787      -0.938667
     14 O15          0.2410    -1.4870     4.9260 o          1 787      -0.938667
     15 O16          2.0840    -2.8030     3.8120 o          1 787      -0.938667
     16 H1          -0.5420     0.0020    -0.9380 ha         1 787       0.025000
     17 H2           1.9230    -0.0000    -0.9380 ha         1 787       0.042000
     18 H3           3.1570     0.0020     1.1970 ha         1 787       0.161500
     19 H5          -0.5420    -0.0050     3.3330 ha         1 787       0.161500
     20 H6          -1.7740    -0.0020     1.1970 ha         1 787       0.042000
     21 H7           3.2010    -0.0000     3.5010 hc         1 787       0.035700
@<TRIPOS>BOND
     1     1     2 ar  
     2     1     6 ar  
     3     1    16 1   
     4     2     3 ar  
     5     2    17 1   
     6     3     4 ar  
     7     3    18 1   
     8     4     5 ar  
     9     4     7 1   
    10     5     6 ar  
    11     5    19 1   
    12     6    20 1   
    13     7     8 1   
    14     7     9 1   
    15     7    21 1   
    16     8    13 1   
    17     8    14 1   
    18     8    15 1   
    19     9    10 1   
    20     9    11 1   
    21     9    12 1   
@<TRIPOS>SUBSTRUCTURE
     1 787         1 TEMP              0 ****  ****    0 ROOT
