@<TRIPOS>MOLECULE
788
   49    53     1     0     0
SMALL
bcc


@<TRIPOS>ATOM
      1 O23          0.0000     0.0000     0.0000 o          1 788      -0.648100
      2 C14          1.2150     0.0000     0.0000 c          1 788       0.591700
      3 N15          1.8890     0.0000     1.1680 ns         1 788      -0.194900
      4 C16          1.1570     0.0010     2.4360 c3         1 788       0.113300
      5 C17          2.1370     0.0010     3.5820 ca         1 788      -0.132300
      6 C22          2.5850     1.1990     4.1060 ca         1 788      -0.084000
      7 C21          3.4850     1.1990     5.1560 ca         1 788      -0.101000
      8 C20          3.9330     0.0020     5.6830 ca         1 788      -0.090000
      9 C19          3.4840    -1.1960     5.1580 ca         1 788      -0.101000
     10 C18          2.5820    -1.1960     4.1100 ca         1 788      -0.084000
     11 C3           1.9540    -0.0060    -1.2790 ca         1 788      -0.140600
     12 C2           3.3550    -0.0060    -1.2770 ca         1 788      -0.078000
     13 C4           1.2550    -0.0190    -2.4850 ca         1 788      -0.056000
     14 C5           1.9530    -0.0250    -3.6830 ca         1 788      -0.292600
     15 N10          1.2880    -0.0360    -4.8940 na         1 788       0.493800
     16 C11         -0.0190    -0.0440    -5.2710 cc         1 788       0.176400
     17 C25         -1.1900    -0.0420    -4.3700 ca         1 788      -0.107900
     18 C30         -2.1690     0.9470    -4.4960 ca         1 788      -0.079500
     19 C29         -3.2610     0.9430    -3.6530 ca         1 788      -0.091500
     20 C28         -3.3870    -0.0370    -2.6840 ca         1 788      -0.082000
     21 C27         -2.4210    -1.0200    -2.5540 ca         1 788      -0.091500
     22 C26         -1.3280    -1.0310    -3.3950 ca         1 788      -0.079500
     23 N12         -0.0450    -0.0530    -6.5920 nd         1 788      -0.317700
     24 N13          1.1560    -0.0520    -7.0570 nd         1 788      -0.032000
     25 C9           2.0200    -0.0420    -6.0600 cc         1 788      -0.405600
     26 C8           3.4310    -0.0360    -5.9910 cc         1 788       0.484600
     27 C24          4.2380    -0.0420    -7.2630 c3         1 788      -0.042400
     28 N7           4.0450    -0.0250    -4.8380 nd         1 788      -0.599000
     29 C6           3.3610    -0.0190    -3.6740 ca         1 788       0.396600
     30 C1           4.0470    -0.0120    -2.4500 ca         1 788      -0.133300
     31 H15          2.8900    -0.0000     1.1680 hn         1 788       0.183500
     32 H161         0.5350     0.8860     2.4930 h1         1 788       0.030700
     33 H162         0.5340    -0.8830     2.4940 h1         1 788       0.030700
     34 H22          2.2340     2.1370     3.6930 ha         1 788       0.108500
     35 H18          2.2300    -2.1340     3.6990 ha         1 788       0.108500
     36 H21          3.8370     2.1370     5.5680 ha         1 788       0.106000
     37 H20          4.6390     0.0030     6.5050 ha         1 788       0.105000
     38 H19          3.8340    -2.1340     5.5720 ha         1 788       0.106000
     39 H2           3.8920    -0.0000    -0.3360 ha         1 788       0.108000
     40 H4           0.1770     0.0920    -2.4870 ha         1 788       0.170000
     41 H1           5.1300    -0.0120    -2.4380 ha         1 788       0.126000
     42 H30         -2.0710     1.7140    -5.2540 ha         1 788       0.113000
     43 H26         -0.5720    -1.8010    -3.2920 ha         1 788       0.113000
     44 H29         -4.0210     1.7090    -3.7490 ha         1 788       0.108000
     45 H28         -4.2450    -0.0340    -2.0230 ha         1 788       0.104000
     46 H27         -2.5280    -1.7850    -1.7950 ha         1 788       0.108000
     47 H241         3.9990     0.8390    -7.8460 hc         1 788       0.025700
     48 H242         4.0020    -0.9300    -7.8360 hc         1 788       0.025700
     49 H243         5.2940    -0.0390    -7.0200 hc         1 788       0.025700
@<TRIPOS>BOND
     1     1     2 2   
     2     2     3 1   
     3     2    11 1   
     4     3     4 1   
     5     3    31 1   
     6     4     5 1   
     7     4    32 1   
     8     4    33 1   
     9     5     6 ar  
    10     5    10 ar  
    11     6     7 ar  
    12     6    34 1   
    13     7     8 ar  
    14     7    36 1   
    15     8     9 ar  
    16     8    37 1   
    17     9    10 ar  
    18     9    38 1   
    19    10    35 1   
    20    11    12 ar  
    21    11    13 ar  
    22    12    30 ar  
    23    12    39 1   
    24    13    14 ar  
    25    13    40 1   
    26    14    15 1   
    27    14    29 ar  
    28    15    16 1   
    29    15    25 1   
    30    16    17 1   
    31    16    23 2   
    32    17    18 ar  
    33    17    22 ar  
    34    18    19 ar  
    35    18    42 1   
    36    19    20 ar  
    37    19    44 1   
    38    20    21 ar  
    39    20    45 1   
    40    21    22 ar  
    41    21    46 1   
    42    22    43 1   
    43    23    24 1   
    44    24    25 2   
    45    25    26 1   
    46    26    27 1   
    47    26    28 2   
    48    27    47 1   
    49    27    48 1   
    50    27    49 1   
    51    28    29 1   
    52    29    30 ar  
    53    30    41 1   
@<TRIPOS>SUBSTRUCTURE
     1 788         1 TEMP              0 ****  ****    0 ROOT
