@<TRIPOS>MOLECULE
molecule
   28    30     1     0     0
SMALL
bcc


@<TRIPOS>ATOM
      1 C1           0.0000     0.0000     0.0000 ca         1 789       0.105100
      2 C2           1.3990     0.0000     0.0000 ca         1 789      -0.085000
      3 C3           2.0850     0.0000     1.1970 ca         1 789      -0.163600
      4 C4           1.3810     0.0000     2.4170 ca         1 789      -0.060800
      5 C5          -0.0100    -0.0000     2.4040 ca         1 789      -0.086000
      6 C6          -0.6940    -0.0010     1.1980 ca         1 789      -0.130000
      7 C10          3.5350     0.0070     1.5370 c          1 789       0.588900
      8 C11          3.6210     0.0000     3.0140 cc         1 789      -0.109400
      9 C12          2.3630     0.0000     3.5190 cd         1 789       0.034500
     10 C13          4.8700     0.0010     3.8060 ca         1 789      -0.058800
     11 C15          5.7350     1.0960     3.7500 ca         1 789      -0.085000
     12 C16          6.8960     1.0940     4.4940 ca         1 789      -0.154500
     13 C17          7.2100     0.0000     5.2900 ca         1 789       0.116100
     14 C18          6.3540    -1.0900     5.3490 ca         1 789      -0.154500
     15 C19          5.1880    -1.0940     4.6120 ca         1 789      -0.085000
     16 O24          8.3590     0.0010     6.0180 oh         1 789      -0.523100
     17 O25          4.4640     0.0130     0.7560 o          1 789      -0.470100
     18 O26         -0.6780    -0.0010    -1.1760 oh         1 789      -0.515100
     19 Br29         1.9300     0.0020     5.3590 br         1 789      -0.034700
     20 H2           1.9420     0.0000    -0.9370 ha         1 789       0.157000
     21 H5          -0.5600    -0.0000     3.3380 ha         1 789       0.148000
     22 H6          -1.7770    -0.0010     1.1930 ha         1 789       0.150000
     23 H15          5.4900     1.9490     3.1290 ha         1 789       0.140500
     24 H16          7.5670     1.9430     4.4510 ha         1 789       0.144000
     25 H18          6.6020    -1.9390     5.9730 ha         1 789       0.144000
     26 H19          4.5200    -1.9460     4.6590 ha         1 789       0.140500
     27 H24          9.0550    -0.3740     5.5050 ho         1 789       0.422000
     28 H26         -0.7910     0.8870    -1.4740 ho         1 789       0.424000
@<TRIPOS>BOND
     1     1     2 ar  
     2     1     6 ar  
     3     1    18 1   
     4     2     3 ar  
     5     2    20 1   
     6     3     4 ar  
     7     3     7 1   
     8     4     5 ar  
     9     4     9 1   
    10     5     6 ar  
    11     5    21 1   
    12     6    22 1   
    13     7     8 1   
    14     7    17 2   
    15     8     9 2   
    16     8    10 1   
    17     9    19 1   
    18    10    11 ar  
    19    10    15 ar  
    20    11    12 ar  
    21    11    23 1   
    22    12    13 ar  
    23    12    24 1   
    24    13    14 ar  
    25    13    16 1   
    26    14    15 ar  
    27    14    25 1   
    28    15    26 1   
    29    16    27 1   
    30    18    28 1   
@<TRIPOS>SUBSTRUCTURE
     1 789         1 TEMP              0 ****  ****    0 ROOT
