@<TRIPOS>MOLECULE
789
   28    30     1     0     0
SMALL
bcc


@<TRIPOS>ATOM
      1 C1         -0.0030    0.1900    0.0600 ca        1 789      0.120100
      2 C2          1.4090    0.2910    0.0700 ca        1 789     -0.135000
      3 C3          2.0440    0.1580    1.2820 ca        1 789     -0.141600
      4 C4          1.3140   -0.0720    2.4860 ca        1 789     -0.082800
      5 C5         -0.0650   -0.1660    2.4610 ca        1 789     -0.066000
      6 C6         -0.7310   -0.0340    1.2340 ca        1 789     -0.142000
      7 C10         3.4950    0.2170    1.6280 c         1 789      0.583900
      8 C11         3.5540   -0.0240    3.1230 cc        1 789     -0.088400
      9 C12         2.2800   -0.1690    3.5990 cd        1 789      0.010500
     10 C13         4.8130   -0.0640    3.8290 ca        1 789     -0.093800
     11 C15         5.8310    0.8420    3.4900 ca        1 789     -0.060500
     12 C16         7.0480    0.8290    4.1630 ca        1 789     -0.191500
     13 C17         7.2600   -0.1110    5.1820 ca        1 789      0.140100
     14 C18         6.2600   -1.0380    5.5220 ca        1 789     -0.191500
     15 C19         5.0480   -1.0070    4.8440 ca        1 789     -0.060500
     16 O24         8.4340   -0.1840    5.8930 oh        1 789     -0.494100
     17 O25         4.4320    0.4310    0.8670 o         1 789     -0.484100
     18 O26        -0.7330    0.3070   -1.1000 oh        1 789     -0.492100
     19 Br29        1.7210   -0.4150    5.3400 br        1 789     -0.024700
     20 H2          1.9720    0.4680   -0.8580 ha        1 789      0.154000
     21 H5         -0.6440   -0.3410    3.3810 ha        1 789      0.153000
     22 H6         -1.8270   -0.1040    1.1850 ha        1 789      0.158000
     23 H15         5.6660    1.5630    2.6730 ha        1 789      0.146000
     24 H16         7.8370    1.5450    3.8950 ha        1 789      0.146000
     25 H18         6.4500   -1.7740    6.3160 ha        1 789      0.146000
     26 H19         4.2710   -1.7430    5.1010 ha        1 789      0.146000
     27 H24         9.0330    0.4960    5.5530 ho        1 789      0.422000
     28 H26        -0.1140    0.4570   -1.8310 ho        1 789      0.425000
@<TRIPOS>BOND
     1    1    2 ar  
     2    1    6 ar  
     3    1   18 1   
     4    2    3 ar  
     5    2   20 1   
     6    3    4 ar  
     7    3    7 1   
     8    4    5 ar  
     9    4    9 1   
    10    5    6 ar  
    11    5   21 1   
    12    6   22 1   
    13    7    8 1   
    14    7   17 2   
    15    8    9 2   
    16    8   10 1   
    17    9   19 1   
    18   10   11 ar  
    19   10   15 ar  
    20   11   12 ar  
    21   11   23 1   
    22   12   13 ar  
    23   12   24 1   
    24   13   14 ar  
    25   13   16 1   
    26   14   15 ar  
    27   14   25 1   
    28   15   26 1   
    29   16   27 1   
    30   18   28 1   
@<TRIPOS>SUBSTRUCTURE
     1 789         1 TEMP              0 ****  ****    0 ROOT
