@<TRIPOS>MOLECULE
78A
   59    61     1     0     0
SMALL
bcc


@<TRIPOS>ATOM
      1 N3           0.0000     0.0000     0.0000 ns         1 78A      -0.189900
      2 C10          1.4650     0.0000     0.0000 c3         1 78A       0.115300
      3 C11          1.9660     0.0000     1.4220 ca         1 78A      -0.131300
      4 C16          2.2030     1.1960     2.0720 ca         1 78A      -0.082000
      5 C15          2.6580     1.1970     3.3770 ca         1 78A      -0.098500
      6 C14          2.8870    -0.0010     4.0280 ca         1 78A      -0.088000
      7 C13          2.6560    -1.1980     3.3770 ca         1 78A      -0.098500
      8 C12          2.1970    -1.1980     2.0740 ca         1 78A      -0.082000
      9 C2          -2.1800     0.0010    -1.1680 cx         1 78A       0.017100
     10 O1          -2.8470    -0.9160    -2.0420 op         1 78A      -0.328600
     11 C3          -2.8950    -1.2500    -0.6540 cx         1 78A       0.031100
     12 C4          -4.2040    -1.0630     0.0690 c          1 78A       0.569100
     13 O4          -5.2320    -1.4800    -0.4230 o          1 78A      -0.646100
     14 N1          -4.2330    -0.4340     1.2600 ns         1 78A      -0.136900
     15 C5          -5.5060    -0.2520     1.9610 c3         1 78A      -0.061300
     16 C6          -5.4080     0.9380     2.8820 c          1 78A       0.596100
     17 O5          -4.3760     1.5720     2.9440 o          1 78A      -0.646100
     18 C17         -5.8200    -1.5060     2.7820 c3         1 78A      -0.073700
     19 C19         -4.7040    -1.7400     3.8020 c3         1 78A      -0.062400
     20 C18         -5.9200    -2.7140     1.8480 c3         1 78A      -0.041100
     21 C20         -5.0770    -2.9190     4.7030 c3         1 78A       0.010900
     22 N2          -6.4670     1.2970     3.6340 n          1 78A      -0.096800
     23 C7          -6.5060     2.4280     4.5730 c3         1 78A      -0.084300
     24 C8          -5.4850     2.2350     5.6650 c          1 78A       0.979600
     25 O6          -5.3620     3.1530     6.6370 o          1 78A      -0.885300
     26 C23         -7.9230     2.4680     5.1810 c3         1 78A      -0.004400
     27 C22         -8.7750     1.7000     4.1360 c3         1 78A      -0.048400
     28 C21         -7.7750     0.6180     3.6560 c3         1 78A       0.029000
     29 O7          -4.7780     1.2550     5.6650 o          1 78A      -0.885300
     30 C9          -0.6730     0.0010    -1.1680 c          1 78A       0.582100
     31 O2          -0.0660     0.0010    -2.2180 o          1 78A      -0.635100
     32 HN3         -0.5000     0.0480     0.8660 hn         1 78A       0.187500
     33 H101         1.8270    -0.8850    -0.5100 h1         1 78A       0.025700
     34 H102         1.8270     0.8850    -0.5100 h1         1 78A       0.025700
     35 H16          2.0230     2.1350     1.5610 ha         1 78A       0.106000
     36 H15          2.8420     2.1350     3.8860 ha         1 78A       0.104500
     37 H14          3.2460    -0.0010     5.0500 ha         1 78A       0.103000
     38 H13          2.8360    -2.1360     3.8880 ha         1 78A       0.104500
     39 H12          2.0150    -2.1360     1.5630 ha         1 78A       0.106000
     40 H2          -2.7090     0.9310    -0.9950 h1         1 78A       0.079700
     41 H3          -2.2380    -2.0590    -0.3570 h1         1 78A       0.065700
     42 HN1         -3.3920    -0.0500     1.6430 hn         1 78A       0.196500
     43 H5          -6.2960    -0.0860     1.2390 h1         1 78A       0.057700
     44 H17         -6.7610    -1.3710     3.3010 hc         1 78A       0.049700
     45 H191        -3.7800    -1.9620     3.2820 hc         1 78A       0.046200
     46 H192        -4.5740    -0.8510     4.4060 hc         1 78A       0.046200
     47 H181        -6.3390    -2.4030     0.8990 hc         1 78A       0.016367
     48 H182        -4.9330    -3.1300     1.6880 hc         1 78A       0.016367
     49 H183        -6.5600    -3.4650     2.2960 hc         1 78A       0.016367
     50 H201        -4.7650    -3.8450     4.2350 hc         1 78A      -0.004300
     51 H202        -6.1490    -2.9340     4.8540 hc         1 78A      -0.004300
     52 H203        -4.5790    -2.8140     5.6600 hc         1 78A      -0.004300
     53 H7          -6.3110     3.3510     4.0410 h1         1 78A       0.033700
     54 H231        -7.9430     1.9590     6.1370 hc         1 78A       0.027200
     55 H232        -8.2680     3.4910     5.2760 hc         1 78A       0.027200
     56 H221        -9.0610     2.3500     3.3180 hc         1 78A       0.009700
     57 H222        -9.6400     1.2450     4.6030 hc         1 78A       0.009700
     58 H211        -7.7560    -0.2120     4.3520 h1         1 78A       0.014700
     59 H212        -8.0380     0.2780     2.6610 h1         1 78A       0.014700
@<TRIPOS>BOND
     1     1     2 1   
     2     1    30 1   
     3     1    32 1   
     4     2     3 1   
     5     2    33 1   
     6     2    34 1   
     7     3     4 ar  
     8     3     8 ar  
     9     4     5 ar  
    10     4    35 1   
    11     5     6 ar  
    12     5    36 1   
    13     6     7 ar  
    14     6    37 1   
    15     7     8 ar  
    16     7    38 1   
    17     8    39 1   
    18     9    10 1   
    19     9    11 1   
    20     9    30 1   
    21     9    40 1   
    22    10    11 1   
    23    11    12 1   
    24    11    41 1   
    25    12    13 2   
    26    12    14 1   
    27    14    15 1   
    28    14    42 1   
    29    15    16 1   
    30    15    18 1   
    31    15    43 1   
    32    16    17 2   
    33    16    22 1   
    34    18    19 1   
    35    18    20 1   
    36    18    44 1   
    37    19    21 1   
    38    19    45 1   
    39    19    46 1   
    40    20    47 1   
    41    20    48 1   
    42    20    49 1   
    43    21    50 1   
    44    21    51 1   
    45    21    52 1   
    46    22    23 1   
    47    22    28 1   
    48    23    24 1   
    49    23    26 1   
    50    23    53 1   
    51    24    25 1   
    52    24    29 1   
    53    26    27 1   
    54    26    54 1   
    55    26    55 1   
    56    27    28 1   
    57    27    56 1   
    58    27    57 1   
    59    28    58 1   
    60    28    59 1   
    61    30    31 2   
@<TRIPOS>SUBSTRUCTURE
     1 78A         1 TEMP              0 ****  ****    0 ROOT
