@<TRIPOS>MOLECULE
78B
   27    27     1     0     0
SMALL
bcc


@<TRIPOS>ATOM
      1 O1           0.0000     0.0000     0.0000 o          1 78B      -0.555000
      2 C1           1.2150     0.0000     0.0000 c          1 78B       0.702700
      3 O2           1.8890     0.0000     1.1660 os         1 78B      -0.414900
      4 C            2.0300    -0.0030     3.5970 c3         1 78B      -0.003100
      5 C2           1.0980    -0.0020     2.3840 c3         1 78B       0.231400
      6 C3           1.9530    -0.0040    -1.2790 ca         1 78B      -0.082600
      7 C4           3.3500    -0.0090    -1.2830 ca         1 78B      -0.030000
      8 C5           4.0330    -0.0130    -2.4810 ca         1 78B      -0.082500
      9 C6           3.3370    -0.0130    -3.6780 ca         1 78B      -0.195300
     10 C7           4.0920    -0.0180    -4.9830 c3         1 78B       0.034100
     11 N1           4.3310    -1.4040    -5.4050 nz         1 78B       0.076400
     12 C8           1.9540    -0.0080    -3.6820 ca         1 78B      -0.082500
     13 C9           1.2580    -0.0090    -2.4910 ca         1 78B      -0.030000
     14 H1           0.4720     0.8820     2.4090 h1         1 78B       0.015700
     15 H2           0.4730    -0.8870     2.4070 h1         1 78B       0.015700
     16 H4           3.8960    -0.0090    -0.3470 ha         1 78B       0.144000
     17 H5           5.1170    -0.0170    -2.4860 ha         1 78B       0.112500
     18 H6           3.5080     0.4940    -5.7390 hx         1 78B       0.083700
     19 H7           5.0400     0.4900    -4.8540 hx         1 78B       0.083700
     20 H8           4.8620    -1.8790    -4.7020 hn         1 78B       0.223467
     21 H9           4.8390    -1.4070    -6.2670 hn         1 78B       0.223467
     22 H11          1.4160    -0.0090    -4.6220 ha         1 78B       0.112500
     23 H12          0.1750    -0.0050    -2.4950 ha         1 78B       0.144000
     24 HA           2.6550     0.8820     3.5730 hc         1 78B       0.016033
     25 HB           1.4400    -0.0040     4.5060 hc         1 78B       0.016033
     26 HC           2.6560    -0.8870     3.5720 hc         1 78B       0.016033
     27 H13          3.4540    -1.8710    -5.5270 hn         1 78B       0.223467
@<TRIPOS>BOND
     1     1     2 2   
     2     2     3 1   
     3     2     6 1   
     4     3     5 1   
     5     4     5 1   
     6     4    24 1   
     7     4    25 1   
     8     4    26 1   
     9     5    14 1   
    10     5    15 1   
    11     6     7 ar  
    12     6    13 ar  
    13     7     8 ar  
    14     7    16 1   
    15     8     9 ar  
    16     8    17 1   
    17     9    10 1   
    18     9    12 ar  
    19    10    11 1   
    20    10    18 1   
    21    10    19 1   
    22    11    20 1   
    23    11    21 1   
    24    11    27 1   
    25    12    13 ar  
    26    12    22 1   
    27    13    23 1   
@<TRIPOS>SUBSTRUCTURE
     1 78B         1 TEMP              0 ****  ****    0 ROOT
