@<TRIPOS>MOLECULE
78C
   36    38     1     0     0
SMALL
bcc


@<TRIPOS>ATOM
      1 O1           0.0000     0.0000     0.0000 o          1 78C      -0.577500
      2 C2           1.2130     0.0000     0.0000 c          1 78C       0.658500
      3 C3           2.2900     0.0000     1.0570 cy         1 78C      -0.160400
      4 C4           3.3440    -0.0010    -0.0540 cy         1 78C       0.129000
      5 C11          4.1680    -1.2610    -0.1200 ca         1 78C      -0.108300
      6 C12          5.4360    -1.2870     0.4310 ca         1 78C      -0.081000
      7 C13          6.1930    -2.4420     0.3720 ca         1 78C      -0.095000
      8 C14          5.6810    -3.5730    -0.2390 ca         1 78C      -0.091000
      9 C15          4.4130    -3.5470    -0.7890 ca         1 78C      -0.095000
     10 C16          3.6560    -2.3930    -0.7250 ca         1 78C      -0.081000
     11 N1           2.1780    -0.0080    -0.9460 nj         1 78C      -0.169400
     12 C5           2.0940    -0.0170    -2.2900 c          1 78C       0.704100
     13 O2           3.1070    -0.0220    -2.9610 o          1 78C      -0.624000
     14 O3           0.8900    -0.0220    -2.8900 os         1 78C      -0.390900
     15 C6           0.8770    -0.0320    -4.3420 c3         1 78C       0.192100
     16 C7          -0.3800    -0.7580    -4.8520 c3         1 78C      -0.043400
     17 C8          -1.1760     0.2690    -5.6840 c3         1 78C      -0.022400
     18 C9          -0.1130     1.3040    -6.1270 c3         1 78C      -0.022400
     19 C10          0.8000     1.4120    -4.8800 c3         1 78C      -0.043400
     20 H31C         2.2990    -0.9090     1.6460 hc         1 78C       0.058700
     21 H32C         2.3010     0.9100     1.6450 hc         1 78C       0.058700
     22 H4           3.9120     0.9200    -0.1030 h1         1 78C       0.056700
     23 H12          5.8370    -0.4020     0.9090 ha         1 78C       0.105500
     24 H16          2.6620    -2.3730    -1.1560 ha         1 78C       0.105500
     25 H13          7.1860    -2.4620     0.8030 ha         1 78C       0.105500
     26 H14          6.2750    -4.4780    -0.2870 ha         1 78C       0.104000
     27 H15          4.0110    -4.4330    -1.2660 ha         1 78C       0.105500
     28 H6           1.7660    -0.5210    -4.7220 h1         1 78C       0.043700
     29 H71C        -0.0950    -1.5970    -5.4760 hc         1 78C       0.027700
     30 H72C        -0.9770    -1.0980    -4.0150 hc         1 78C       0.027700
     31 H101         1.7860     1.7620    -5.1630 hc         1 78C       0.027700
     32 H102         0.3550     2.0670    -4.1410 hc         1 78C       0.027700
     33 H81C        -1.6210    -0.2080    -6.5480 hc         1 78C       0.017450
     34 H82C        -1.9330     0.7440    -5.0720 hc         1 78C       0.017450
     35 H91C         0.4450     0.9370    -6.9790 hc         1 78C       0.017450
     36 H92C        -0.5770     2.2590    -6.3440 hc         1 78C       0.017450
@<TRIPOS>BOND
     1     1     2 2   
     2     2     3 1   
     3     2    11 1   
     4     3     4 1   
     5     3    20 1   
     6     3    21 1   
     7     4     5 1   
     8     4    11 1   
     9     4    22 1   
    10     5     6 ar  
    11     5    10 ar  
    12     6     7 ar  
    13     6    23 1   
    14     7     8 ar  
    15     7    25 1   
    16     8     9 ar  
    17     8    26 1   
    18     9    10 ar  
    19     9    27 1   
    20    10    24 1   
    21    11    12 1   
    22    12    13 2   
    23    12    14 1   
    24    14    15 1   
    25    15    16 1   
    26    15    19 1   
    27    15    28 1   
    28    16    17 1   
    29    16    29 1   
    30    16    30 1   
    31    17    18 1   
    32    17    33 1   
    33    17    34 1   
    34    18    19 1   
    35    18    35 1   
    36    18    36 1   
    37    19    31 1   
    38    19    32 1   
@<TRIPOS>SUBSTRUCTURE
     1 78C         1 TEMP              0 ****  ****    0 ROOT
