@<TRIPOS>MOLECULE
molecule
   36    38     1     0     0
SMALL
bcc


@<TRIPOS>ATOM
      1 O1           0.0000     0.0000     0.0000 o          1 78C      -0.542500
      2 C2           1.2130     0.0000     0.0000 c          1 78C       0.725500
      3 C3           2.2900     0.0000     1.0570 cy         1 78C      -0.204400
      4 C4           3.3440    -0.0010    -0.0540 cy         1 78C       0.190000
      5 C11          4.1680    -1.2610    -0.1200 ca         1 78C      -0.101300
      6 C12          5.4360    -1.2870     0.4310 ca         1 78C      -0.105500
      7 C13          6.1930    -2.4420     0.3720 ca         1 78C      -0.125500
      8 C14          5.6810    -3.5730    -0.2390 ca         1 78C      -0.118000
      9 C15          4.4130    -3.5470    -0.7890 ca         1 78C      -0.125500
     10 C16          3.6560    -2.3930    -0.7250 ca         1 78C      -0.105500
     11 N1           2.1780    -0.0080    -0.9460 nj         1 78C      -0.502400
     12 C5           2.0940    -0.0170    -2.2900 c          1 78C       0.749100
     13 O2           3.1070    -0.0220    -2.9610 o          1 78C      -0.580000
     14 O3           0.8900    -0.0220    -2.8900 os         1 78C      -0.411900
     15 C6           0.8770    -0.0320    -4.3420 c3         1 78C       0.159100
     16 C7          -0.3800    -0.7580    -4.8520 c3         1 78C      -0.093900
     17 C8          -1.1760     0.2690    -5.6840 c3         1 78C      -0.083900
     18 C9          -0.1130     1.3040    -6.1270 c3         1 78C      -0.083900
     19 C10          0.8000     1.4120    -4.8800 c3         1 78C      -0.093900
     20 H31C         2.2990    -0.9090     1.6460 hc         1 78C       0.092200
     21 H32C         2.3010     0.9100     1.6450 hc         1 78C       0.092200
     22 H4           3.9120     0.9200    -0.1030 h1         1 78C       0.091700
     23 H12          5.8370    -0.4020     0.9090 ha         1 78C       0.133500
     24 H16          2.6620    -2.3730    -1.1560 ha         1 78C       0.133500
     25 H13          7.1860    -2.4620     0.8030 ha         1 78C       0.133500
     26 H14          6.2750    -4.4780    -0.2870 ha         1 78C       0.132000
     27 H15          4.0110    -4.4330    -1.2660 ha         1 78C       0.133500
     28 H6           1.7660    -0.5210    -4.7220 h1         1 78C       0.075700
     29 H71C        -0.0950    -1.5970    -5.4760 hc         1 78C       0.059950
     30 H72C        -0.9770    -1.0980    -4.0150 hc         1 78C       0.059950
     31 H101         1.7860     1.7620    -5.1630 hc         1 78C       0.059950
     32 H102         0.3550     2.0670    -4.1410 hc         1 78C       0.059950
     33 H81C        -1.6210    -0.2080    -6.5480 hc         1 78C       0.048950
     34 H82C        -1.9330     0.7440    -5.0720 hc         1 78C       0.048950
     35 H91C         0.4450     0.9370    -6.9790 hc         1 78C       0.048950
     36 H92C        -0.5770     2.2590    -6.3440 hc         1 78C       0.048950
@<TRIPOS>BOND
     1     1     2 2   
     2     2     3 1   
     3     2    11 1   
     4     3     4 1   
     5     4     5 1   
     6     4    11 1   
     7     5     6 ar  
     8     5    10 ar  
     9     6     7 ar  
    10     7     8 ar  
    11     8     9 ar  
    12     9    10 ar  
    13    11    12 1   
    14    12    13 2   
    15    12    14 1   
    16    14    15 1   
    17    15    16 1   
    18    15    19 1   
    19    16    17 1   
    20    17    18 1   
    21    18    19 1   
    22     3    20 1   
    23     3    21 1   
    24     4    22 1   
    25     6    23 1   
    26    10    24 1   
    27     7    25 1   
    28     8    26 1   
    29     9    27 1   
    30    15    28 1   
    31    16    29 1   
    32    16    30 1   
    33    19    31 1   
    34    19    32 1   
    35    17    33 1   
    36    17    34 1   
    37    18    35 1   
    38    18    36 1   
@<TRIPOS>SUBSTRUCTURE
     1 78C         1 TEMP              0 ****  ****    0 ROOT
