@<TRIPOS>MOLECULE
78D
   47    51     1     0     0
SMALL
bcc


@<TRIPOS>ATOM
      1 N2           0.0000     0.0000     0.0000 n7         1 78D      -0.059000
      2 C2           1.4930    -1.2510     2.1030 c3         1 78D      -0.105000
      3 N1           1.4540     0.0000     0.0000 n7         1 78D      -0.088000
      4 C4          -0.5290    -1.2100     0.6420 c3         1 78D      -0.061000
      5 C5          -2.0360    -1.1730     0.6230 c2         1 78D       0.357000
      6 C16         -4.1850    -2.1940     0.7450 c3         1 78D       0.065000
      7 C18         -6.3100    -3.4620     0.9020 c2         1 78D      -0.555000
      8 C15        -14.6310    -3.7810    -3.7720 c2         1 78D       0.400000
      9 C17         -4.8070    -3.5790     0.9320 DU         1 78D       0.009000
     10 C19         -7.0150    -4.1940     0.0460 c3         1 78D      -0.025000
     11 C1          -0.0380    -1.2720     2.0910 c3         1 78D      -0.098000
     12 C3           1.9840     0.0000     1.3700 c3         1 78D      -0.080000
     13 C20         -8.4820    -4.0800     0.0160 c3         1 78D      -0.021000
     14 O1          -2.7380    -2.3060     0.7740 os         1 78D      -0.264000
     15 C21         -9.1880    -4.8100    -0.8410 c2         1 78D      -0.530000
     16 O2          -2.6110    -0.1210     0.4710 o          1 78D      -0.376000
     17 O5         -15.2700    -3.9520    -2.7620 o          1 78D      -0.637000
     18 C22        -10.6900    -4.6940    -0.8710 DU         1 78D      -0.023000
     19 C23        -11.1470    -4.3540    -2.2910 c3         1 78D      -0.145000
     20 C29        -12.6720    -4.2360    -2.3220 c3         1 78D      -0.092000
     21 C30        -13.1290    -3.8970    -3.7420 c3         1 78D      -0.163000
     22 H1          -0.3340     0.0510    -0.9420 hn         1 78D       0.069000
     23 H2           1.8700    -2.1350     1.6020 hc         1 78D       0.058000
     24 H3           1.8460    -1.2310     3.1270 hc         1 78D       0.058000
     25 H4          -0.1780    -2.0840     0.1070 h1         1 78D       0.068000
     26 H6          -4.4960    -1.7840    -0.2070 h1         1 78D       0.061500
     27 H7          -4.5120    -1.5400     1.5450 h1         1 78D       0.061500
     28 H9          -5.7680    -4.2730     1.3750 DU         1 78D       0.159000
     29 H12         -4.4790    -4.2330     0.1330 ha         1 78D       0.046500
     30 H13         -4.4960    -3.9890     1.8850 ha         1 78D       0.046500
     31 H18         -7.6790    -4.6590     0.7630 DU         1 78D       0.239500
     32 H19         -0.3910    -2.1860     2.5530 hc         1 78D       0.067000
     33 H20         -0.4150    -0.4150     2.6370 hc         1 78D       0.067000
     34 H21          1.6350     0.8830     1.8910 h1         1 78D       0.050000
     35 H22          3.0670    -0.0030     1.3370 h1         1 78D       0.050000
     36 H26         -7.8170    -3.6140    -0.7020 DU         1 78D       0.239500
     37 H27         -9.7300    -3.9990    -1.3120 DU         1 78D       0.247000
     38 H31        -11.0060    -3.9100    -0.1930 ha         1 78D       0.070500
     39 H32        -11.1320    -5.6350    -0.5650 ha         1 78D       0.070500
     40 H33        -10.7060    -3.4130    -2.5970 hc         1 78D       0.058000
     41 H34        -10.8320    -5.1380    -2.9690 hc         1 78D       0.058000
     42 H39        -12.9870    -3.4520    -1.6440 hc         1 78D       0.064000
     43 H40        -13.1140    -5.1770    -2.0160 hc         1 78D       0.064000
     44 H41        -12.8130    -4.6810    -4.4200 hc         1 78D       0.045000
     45 H42        -12.6870    -2.9560    -4.0480 hc         1 78D       0.045000
     46 OXT        -15.2610    -3.5370    -4.9320 o          1 78D      -0.637000
     47 H5           1.7880     0.8080    -0.4870 hn         1 78D       0.063000
@<TRIPOS>BOND
     1     1     3 1   
     2     1     4 1   
     3     1    22 1   
     4     2    11 1   
     5     2    12 1   
     6     2    23 1   
     7     2    24 1   
     8     3    12 1   
     9     3    47 1   
    10     4     5 1   
    11     4    11 1   
    12     4    25 1   
    13     5    14 1   
    14     5    16 1   
    15     6     9 1   
    16     6    14 1   
    17     6    26 1   
    18     6    27 1   
    19     7     9 1   
    20     7    10 1   
    21     7    28 1   
    22     8    17 1   
    23     8    21 1   
    24     8    46 1   
    25     9    28 1   
    26     9    29 1   
    27     9    30 1   
    28    10    13 1   
    29    10    31 1   
    30    10    36 1   
    31    11    32 1   
    32    11    33 1   
    33    12    34 1   
    34    12    35 1   
    35    13    15 1   
    36    13    31 1   
    37    13    36 1   
    38    15    18 1   
    39    15    37 1   
    40    18    19 1   
    41    18    37 1   
    42    18    38 1   
    43    18    39 1   
    44    19    20 1   
    45    19    40 1   
    46    19    41 1   
    47    20    21 1   
    48    20    42 1   
    49    20    43 1   
    50    21    44 1   
    51    21    45 1   
@<TRIPOS>SUBSTRUCTURE
     1 78D         1 TEMP              0 ****  ****    0 ROOT
