@<TRIPOS>MOLECULE
molecule
   47    47     1     0     0
SMALL
bcc


@<TRIPOS>ATOM
      1 N2           0.0000     0.0000     0.0000 n7         1 78D      -0.588000
      2 C2           1.4930    -1.2510     2.1030 c3         1 78D      -0.079400
      3 N1           1.4540     0.0000     0.0000 n7         1 78D      -0.607000
      4 C4          -0.5290    -1.2100     0.6420 c3         1 78D       0.127500
      5 C5          -2.0360    -1.1730     0.6230 c          1 78D       0.627100
      6 C16         -4.1850    -2.1940     0.7450 c3         1 78D       0.150400
      7 C18         -6.3100    -3.4620     0.9020 c2         1 78D      -0.206200
      8 C15        -14.6310    -3.7810    -3.7720 c          1 78D       0.891600
      9 C17         -4.8070    -3.5790     0.9320 c3         1 78D      -0.043200
     10 C19         -7.0150    -4.1940     0.0460 ce         1 78D      -0.102000
     11 C1          -0.0380    -1.2720     2.0910 c3         1 78D      -0.069400
     12 C3           1.9840     0.0000     1.3700 c3         1 78D       0.155800
     13 C20         -8.4820    -4.0800     0.0160 ce         1 78D      -0.186000
     14 O1          -2.7380    -2.3060     0.7740 os         1 78D      -0.435900
     15 C21         -9.1880    -4.8100    -0.8410 c2         1 78D      -0.123200
     16 O2          -2.6110    -0.1210     0.4710 o          1 78D      -0.529000
     17 O5         -15.2700    -3.9520    -2.7620 o          1 78D      -0.856800
     18 C22        -10.6900    -4.6940    -0.8710 c3         1 78D      -0.057200
     19 C23        -11.1470    -4.3540    -2.2910 c3         1 78D      -0.084400
     20 C29        -12.6720    -4.2360    -2.3220 c3         1 78D      -0.064400
     21 C30        -13.1290    -3.8970    -3.7420 c3         1 78D      -0.183400
     22 H1          -0.3340     0.0510    -0.9420 hn         1 78D       0.373800
     23 H2           1.8460    -1.2310     3.1270 hc         1 78D       0.049200
     24 H3           1.8700    -2.1350     1.6020 hc         1 78D       0.049200
     25 H4          -0.1780    -2.0840     0.1070 h1         1 78D       0.056700
     26 H6          -4.5120    -1.5400     1.5450 h1         1 78D       0.053700
     27 H7          -4.4960    -1.7840    -0.2070 h1         1 78D       0.053700
     28 H9          -6.8140    -2.7830     1.5780 ha         1 78D       0.130000
     29 H12         -4.4790    -4.2330     0.1330 hc         1 78D       0.052700
     30 H13         -4.4960    -3.9890     1.8850 hc         1 78D       0.052700
     31 H18         -6.5110    -4.8730    -0.6310 ha         1 78D       0.122000
     32 H19         -0.4150    -0.4150     2.6370 hc         1 78D       0.058700
     33 H20         -0.3910    -2.1860     2.5530 hc         1 78D       0.058700
     34 H21          1.6350     0.8830     1.8910 h1         1 78D       0.041200
     35 H22          3.0670    -0.0030     1.3370 h1         1 78D       0.041200
     36 H26         -8.9860    -3.4010     0.6930 ha         1 78D       0.131000
     37 H27         -8.6840    -5.4900    -1.5180 ha         1 78D       0.119000
     38 H31        -11.0060    -3.9100    -0.1930 hc         1 78D       0.049200
     39 H32        -11.1320    -5.6350    -0.5650 hc         1 78D       0.049200
     40 H33        -10.8320    -5.1380    -2.9690 hc         1 78D       0.032700
     41 H34        -10.7060    -3.4130    -2.5970 hc         1 78D       0.032700
     42 H39        -12.9870    -3.4520    -1.6440 hc         1 78D       0.045700
     43 H40        -13.1140    -5.1770    -2.0160 hc         1 78D       0.045700
     44 H41        -12.6870    -2.9560    -4.0480 hc         1 78D       0.027200
     45 H42        -12.8130    -4.6810    -4.4200 hc         1 78D       0.027200
     46 OXT        -15.2540    -3.4360    -4.9100 o          1 78D      -0.856800
     47 H5           1.7880     0.8080    -0.4870 hn         1 78D       0.365800
@<TRIPOS>BOND
     1    21    20 1
     2    21     8 1
     3    20    19 1
     4    19    18 1
     5    18    15 1
     6     8    17 1
     7    15    13 2
     8    13    10 1
     9    10     7 2
    10     7     9 1
    11     9     6 1
    12    16     5 2
    13     1     3 1
    14     1     4 1
    15     6    14 1
    16     5    14 1
    17     5     4 1
    18     3    12 1
    19     4    11 1
    20    12     2 1
    21    11     2 1
    22     1    22 1
    23     2    23 1
    24     2    24 1
    25     4    25 1
    26     6    26 1
    27     6    27 1
    28     7    28 1
    29     9    29 1
    30     9    30 1
    31    10    31 1
    32    11    32 1
    33    11    33 1
    34    12    34 1
    35    12    35 1
    36    13    36 1
    37    15    37 1
    38    18    38 1
    39    18    39 1
    40    19    40 1
    41    19    41 1
    42    20    42 1
    43    20    43 1
    44    21    44 1
    45    21    45 1
    46     8    46 1
    47     3    47 1
@<TRIPOS>SUBSTRUCTURE
     1 78D         1 TEMP              0 ****  ****    0 ROOT
