@<TRIPOS>MOLECULE
molecule
   61    61     1     0     0
SMALL
bcc


@<TRIPOS>ATOM
      1 C1           1.5300     0.0000     0.0000 c3         1 78F      -0.177700
      2 C2           0.0000     0.0000     0.0000 c3         1 78F       0.165100
      3 C3          -0.5100    -0.0000    -1.4420 c3         1 78F      -0.112700
      4 C4          -2.0270     0.1940    -1.4470 c3         1 78F       0.168300
      5 C5          -2.5510     0.0300    -2.8500 c2         1 78F      -0.116200
      6 C6          -7.5450    -5.4560    -9.9050 c3         1 78F      -0.070400
      7 C7          -8.0380    -5.7580   -11.3240 c3         1 78F      -0.079400
      8 C8          -7.2890    -6.9790   -11.8650 c3         1 78F       0.155800
      9 N2          -5.8440    -6.7140   -11.8390 n7         1 78F      -0.607000
     10 N3          -5.3850    -6.4490   -10.4850 n7         1 78F      -0.588000
     11 C9          -6.0290    -5.2500    -9.9330 c3         1 78F       0.127500
     12 C10         -5.5280    -5.0090    -8.5320 c          1 78F       0.628100
     13 O1          -5.6490    -3.7940    -7.9750 os         1 78F      -0.436900
     14 O2          -5.0170    -5.9100    -7.9110 o          1 78F      -0.528000
     15 C25         -5.1440    -3.6340    -6.6230 c3         1 78F       0.150400
     16 C26         -5.3690    -2.1940    -6.1620 c3         1 78F      -0.044200
     17 C27         -4.8460    -2.0280    -4.7580 c2         1 78F      -0.202200
     18 C28         -3.9540    -1.0800    -4.4890 ce         1 78F      -0.103000
     19 C29         -3.4430    -0.9190    -3.1190 ce         1 78F      -0.172000
     20 C30          2.0330     0.0000     1.4200 c          1 78F       0.902600
     21 O6           1.2470     0.0010     2.3390 o          1 78F      -0.852300
     22 C31          2.0400     1.2490    -0.7220 c3         1 78F      -0.073100
     23 C32         -0.1660    -1.3360    -2.1050 c3         1 78F      -0.079100
     24 O7          -2.3420     1.5050    -0.9720 os         1 78F      -0.429600
     25 O8          -0.4760    -1.1660     0.6740 os         1 78F      -0.403600
     26 C33         -2.7920     1.5410     0.3840 c3         1 78F       0.117700
     27 C34         -1.5400    -0.9120     1.5950 c3         1 78F       0.138700
     28 H1           1.8910    -0.8850    -0.5110 hc         1 78F       0.052700
     29 H2          -0.3610     0.8850     0.5100 h1         1 78F       0.051700
     30 H3          -0.0410     0.8070    -1.9920 hc         1 78F       0.065700
     31 H4          -2.4880    -0.5430    -0.8010 h1         1 78F       0.052700
     32 H5          -2.2020     0.6840    -3.6390 ha         1 78F       0.128000
     33 H9          -9.1010    -5.9660   -11.3010 hc         1 78F       0.049200
     34 H10         -7.8450    -4.9040   -11.9620 hc         1 78F       0.049200
     35 H11         -7.6020    -7.1710   -12.8840 h1         1 78F       0.041200
     36 H12         -7.5090    -7.8400   -11.2450 h1         1 78F       0.041200
     37 H13         -4.3920    -6.3230   -10.4880 hn         1 78F       0.373800
     38 H14         -5.7940    -4.3960   -10.5580 h1         1 78F       0.056700
     39 H32         -4.0850    -3.8590    -6.6050 h1         1 78F       0.054200
     40 H33         -5.6690    -4.3120    -5.9600 h1         1 78F       0.054200
     41 H34         -4.8440    -1.5160    -6.8250 hc         1 78F       0.053700
     42 H35         -6.4280    -1.9690    -6.1810 hc         1 78F       0.053700
     43 H36         -5.1960    -2.6830    -3.9690 ha         1 78F       0.130000
     44 H37         -3.6030    -0.4260    -5.2780 ha         1 78F       0.124000
     45 H38         -3.7920    -1.5730    -2.3290 ha         1 78F       0.131000
     46 H39          2.9840     1.5570    -0.2880 hc         1 78F       0.024033
     47 H40          2.1820     1.0260    -1.7730 hc         1 78F       0.024033
     48 H41          1.3160     2.0480    -0.6170 hc         1 78F       0.024033
     49 H42         -0.3660    -1.2740    -3.1680 hc         1 78F       0.034033
     50 H43         -0.7710    -2.1220    -1.6690 hc         1 78F       0.034033
     51 H44          0.8830    -1.5570    -1.9480 hc         1 78F       0.034033
     52 H45         -3.2540     0.5950     0.6360 h1         1 78F       0.034033
     53 H46         -3.5140     2.3390     0.5030 h1         1 78F       0.034033
     54 H47         -1.9480     1.7170     1.0400 h1         1 78F       0.034033
     55 H48         -1.4510    -1.5800     2.4430 h1         1 78F       0.017033
     56 H49         -2.4900    -1.0780     1.1020 h1         1 78F       0.017033
     57 H50         -1.4840     0.1140     1.9360 h1         1 78F       0.017033
     58 H6          -5.3530    -7.5050   -12.2090 hn         1 78F       0.365800
     59 OXT          3.3530    -0.0000     1.6650 o          1 78F      -0.852300
     60 H7          -7.7840    -6.2900    -9.2550 hc         1 78F       0.058700
     61 H8          -8.0260    -4.5560    -9.5390 hc         1 78F       0.058700
@<TRIPOS>BOND
     1    16    15 1
     2    16    17 1
     3    15    13 1
     4    17    18 2
     5    26    24 1
     6    18    19 1
     7    19     5 2
     8    13    12 1
     9    24     4 1
    10     5     4 1
    11    14    12 2
    12    12    11 1
    13     4     3 1
    14    11     6 1
    15    11    10 1
    16     3    23 1
    17     3     2 1
    18     6     7 1
    19    27    25 1
    20    10     9 1
    21     2    25 1
    22     2     1 1
    23     7     8 1
    24     9     8 1
    25     1    22 1
    26     1    20 1
    27    20    21 1
    28     1    28 1
    29     2    29 1
    30     3    30 1
    31     4    31 1
    32     5    32 1
    33     6    60 1
    34     6    61 1
    35     7    33 1
    36     7    34 1
    37     8    35 1
    38     8    36 1
    39    10    37 1
    40    11    38 1
    41    15    39 1
    42    15    40 1
    43    16    41 1
    44    16    42 1
    45    17    43 1
    46    18    44 1
    47    19    45 1
    48    22    46 1
    49    22    47 1
    50    22    48 1
    51    23    49 1
    52    23    50 1
    53    23    51 1
    54    26    52 1
    55    26    53 1
    56    26    54 1
    57    27    55 1
    58    27    56 1
    59    27    57 1
    60     9    58 1
    61    20    59 1
@<TRIPOS>SUBSTRUCTURE
     1 78F         1 TEMP              0 ****  ****    0 ROOT
