@<TRIPOS>MOLECULE
78F
   61    65     1     0     0
SMALL
bcc


@<TRIPOS>ATOM
      1 C1           1.5300     0.0000     0.0000 c3         1 78F      -0.159000
      2 C2           0.0000     0.0000     0.0000 c3         1 78F       0.077000
      3 C3          -0.5100    -0.0000    -1.4420 c3         1 78F      -0.190000
      4 C4          -2.0270     0.1940    -1.4470 DU         1 78F       0.142000
      5 C5          -2.5510     0.0300    -2.8500 c2         1 78F      -0.512000
      6 C6          -7.5450    -5.4560    -9.9050 c3         1 78F      -0.096000
      7 C7          -8.0380    -5.7580   -11.3240 c3         1 78F      -0.143000
      8 C8          -7.2890    -6.9790   -11.8650 c3         1 78F      -0.080000
      9 N2          -5.8440    -6.7140   -11.8390 n7         1 78F      -0.058000
     10 N3          -5.3850    -6.4490   -10.4850 n7         1 78F      -0.030000
     11 C9          -6.0290    -5.2500    -9.9330 c3         1 78F      -0.101000
     12 C10         -5.5280    -5.0090    -8.5320 c2         1 78F       0.359000
     13 O1          -5.6490    -3.7940    -7.9750 os         1 78F      -0.267000
     14 O2          -5.0170    -5.9100    -7.9110 o          1 78F      -0.366000
     15 C25         -5.1440    -3.6340    -6.6230 c3         1 78F       0.068000
     16 C26         -5.3690    -2.1940    -6.1620 DU         1 78F       0.004000
     17 C27         -4.8460    -2.0280    -4.7580 c2         1 78F      -0.565000
     18 C28         -3.9540    -1.0800    -4.4890 c3         1 78F      -0.025000
     19 C29         -3.4430    -0.9190    -3.1190 c3         1 78F      -0.018000
     20 C30          2.0330     0.0000     1.4200 c2         1 78F       0.411000
     21 O6           1.2470     0.0010     2.3390 o          1 78F      -0.632000
     22 C31          2.0400     1.2490    -0.7220 c3         1 78F      -0.102000
     23 C32         -0.1660    -1.3360    -2.1050 c3         1 78F      -0.144000
     24 O7          -2.3420     1.5050    -0.9720 os         1 78F      -0.251000
     25 O8          -0.4760    -1.1660     0.6740 os         1 78F      -0.244000
     26 C33         -2.7920     1.5410     0.3840 c3         1 78F       0.012000
     27 C34         -1.5400    -0.9120     1.5950 c3         1 78F       0.041000
     28 H1           1.8910    -0.8850    -0.5110 hc         1 78F       0.071000
     29 H2          -0.3610     0.8850     0.5100 h1         1 78F       0.080000
     30 H3          -0.0410     0.8070    -1.9920 hc         1 78F       0.112000
     31 H4          -2.4880    -0.5430    -0.8010 ha         1 78F       0.080000
     32 H5          -1.7950    -0.6030    -2.4010 DU         1 78F       0.247000
     33 H9          -7.8450    -4.9040   -11.9620 hc         1 78F       0.057500
     34 H10         -9.1010    -5.9670   -11.3010 hc         1 78F       0.057500
     35 H11         -7.6020    -7.1710   -12.8840 h1         1 78F       0.069000
     36 H12         -7.5090    -7.8400   -11.2450 h1         1 78F       0.069000
     37 H13         -4.3920    -6.3230   -10.4880 hn         1 78F       0.073000
     38 H14         -5.7940    -4.3960   -10.5580 h1         1 78F       0.056000
     39 H32         -4.0850    -3.8590    -6.6050 h1         1 78F       0.062000
     40 H33         -5.6690    -4.3120    -5.9600 h1         1 78F       0.062000
     41 H34         -6.4280    -1.9690    -6.1810 ha         1 78F       0.046000
     42 H35         -4.8440    -1.5160    -6.8250 ha         1 78F       0.046000
     43 H36         -5.6010    -1.3960    -5.2080 DU         1 78F       0.167000
     44 H37         -4.4960    -0.5920    -3.6870 DU         1 78F       0.241000
     45 H38         -2.9010    -1.4060    -3.9200 DU         1 78F       0.241000
     46 H39          1.4790     2.1140    -0.3880 hc         1 78F       0.036333
     47 H40          1.9120     1.1260    -1.7910 hc         1 78F       0.036333
     48 H41          3.0910     1.3920    -0.4990 hc         1 78F       0.036333
     49 H42         -0.2520    -1.2380    -3.1800 hc         1 78F       0.058667
     50 H43          0.8490    -1.6150    -1.8480 hc         1 78F       0.058667
     51 H44         -0.8500    -2.0990    -1.7560 hc         1 78F       0.058667
     52 H45         -3.5540     2.3030     0.4910 h1         1 78F       0.040667
     53 H46         -3.2050     0.5760     0.6530 h1         1 78F       0.040667
     54 H47         -1.9570     1.7710     1.0350 h1         1 78F       0.040667
     55 H48         -2.4900    -1.0940     1.1070 h1         1 78F       0.027333
     56 H49         -1.4940     0.1190     1.9240 h1         1 78F       0.027333
     57 H50         -1.4410    -1.5690     2.4500 h1         1 78F       0.027333
     58 H6          -5.6380    -5.9270   -12.4210 hn         1 78F       0.029000
     59 OXT          3.3530    -0.0000     1.6650 o          1 78F      -0.632000
     60 H7          -7.7840    -6.2900    -9.2550 hc         1 78F       0.071500
     61 H8          -8.0260    -4.5560    -9.5390 hc         1 78F       0.071500
@<TRIPOS>BOND
     1     1     2 1   
     2     1    20 1   
     3     1    22 1   
     4     1    28 1   
     5     2     3 1   
     6     2    25 1   
     7     2    29 1   
     8     3     4 1   
     9     3    23 1   
    10     3    30 1   
    11     4     5 1   
    12     4    24 1   
    13     4    31 1   
    14     4    32 1   
    15     5    19 1   
    16     5    32 1   
    17     6     7 1   
    18     6    11 1   
    19     6    60 1   
    20     6    61 1   
    21     7     8 1   
    22     7    33 1   
    23     7    34 1   
    24     8     9 1   
    25     8    35 1   
    26     8    36 1   
    27     9    10 1   
    28     9    58 1   
    29    10    11 1   
    30    10    37 1   
    31    11    12 1   
    32    11    38 1   
    33    12    13 1   
    34    12    14 1   
    35    13    15 1   
    36    15    16 1   
    37    15    39 1   
    38    15    40 1   
    39    16    17 1   
    40    16    41 1   
    41    16    42 1   
    42    16    43 1   
    43    17    18 1   
    44    17    43 1   
    45    18    19 1   
    46    18    44 1   
    47    18    45 1   
    48    19    44 1   
    49    19    45 1   
    50    20    21 1   
    51    20    59 1   
    52    22    46 1   
    53    22    47 1   
    54    22    48 1   
    55    23    49 1   
    56    23    50 1   
    57    23    51 1   
    58    24    26 1   
    59    25    27 1   
    60    26    52 1   
    61    26    53 1   
    62    26    54 1   
    63    27    55 1   
    64    27    56 1   
    65    27    57 1   
@<TRIPOS>SUBSTRUCTURE
     1 78F         1 TEMP              0 ****  ****    0 ROOT
