@<TRIPOS>MOLECULE
78G
   73    77     1     0     0
SMALL
bcc


@<TRIPOS>ATOM
      1 N4           0.0000     0.0000     0.0000 n2         1 78G      -0.037000
      2 C19         -4.1920    -5.0080     8.0610 DU         1 78G      -0.158000
      3 C21         -2.3840    -0.1100     5.7310 c3         1 78G      -0.090000
      4 C22         -2.8260    -1.5700     5.8490 c3         1 78G      -0.223000
      5 C20         -3.2610    -5.6210     9.0760 c2         1 78G       0.337000
      6 N5          -4.2060    -1.6260     6.3490 nx         1 78G       0.656000
      7 O7          -3.5670    -5.6340    10.2450 o          1 78G      -0.460500
      8 C1           2.3430     0.0010    -0.9990 c2         1 78G       0.058000
      9 C10         -5.1130    -1.0410     5.3520 c3         1 78G      -0.161000
     10 C11         -6.5100    -0.9860     5.9150 c2         1 78G      -0.409000
     11 C12         -7.3590    -2.1080     5.8340 c2         1 78G      -0.275000
     12 C13         -9.0190    -0.9260     6.9240 c2         1 78G       0.148000
     13 C14         -6.9660     0.1410     6.5120 c2         1 78G       0.037000
     14 C17         -4.5820    -3.0240     6.5950 c3         1 78G      -0.319000
     15 C18         -3.7130    -3.5980     7.7150 c3         1 78G      -0.191000
     16 C2           1.3550     0.0000     0.0000 c2         1 78G      -0.245000
     17 C3           1.7690     0.0000     1.3430 c2         1 78G      -0.143000
     18 C4           3.9600     0.0020     0.6490 c2         1 78G       0.022000
     19 C5          -0.4330     0.0000     1.2270 c2         1 78G      -0.207000
     20 C6           0.5400    -0.0010     3.5550 c3         1 78G       0.042000
     21 C7          -0.9070    -0.0540     5.3370 c3         1 78G       0.030000
     22 C8          -0.4160     1.4090     5.2960 c3         1 78G       0.054000
     23 C9           0.5580     1.4460     4.0970 c3         1 78G       0.002000
     24 N1           3.0700     0.0010     1.6180 n2         1 78G      -0.133000
     25 N10         -5.5500    -4.9420     8.6190 nz         1 78G       0.368000
     26 N2           3.6200     0.0020    -0.6270 n2         1 78G      -0.072000
     27 N3           0.6200    -0.0000     2.0930 na         1 78G       0.261000
     28 N6           1.9970     0.0010    -2.3380 nv         1 78G       0.065000
     29 N7          -8.5840    -2.0420     6.3410 n2         1 78G       0.034000
     30 N8          -8.2340     0.1640     7.0120 n          1 78G       0.229000
     31 N9          -6.9210    -3.2650     5.2340 nz         1 78G       0.901000
     32 O1          -0.7270    -0.5420     3.9900 os         1 78G      -0.274000
     33 O2           1.8720     1.8030     4.5310 oh         1 78G      -0.287000
     34 O3           0.2670     1.7430     6.5070 oh         1 78G      -0.286000
     35 O5         -10.1470    -0.8910     7.3860 o          1 78G      -0.174000
     36 H25         -4.2070    -5.6170     7.1640 hx         1 78G       0.139000
     37 H29         -2.5040     0.3720     6.6940 hc         1 78G       0.083500
     38 H30         -2.9820     0.3880     4.9770 hc         1 78G       0.083500
     39 H32         -2.2210    -1.9110     6.6810 hx         1 78G       0.116500
     40 H31         -2.8660    -2.4590     5.2310 hx         1 78G       0.116500
     41 H10         -4.7890    -0.0360     5.1100 hx         1 78G       0.133500
     42 H9          -5.1070    -1.6420     4.4510 hx         1 78G       0.133500
     43 H13         -6.3730     1.0480     6.5370 h4         1 78G       0.165000
     44 H20         -7.5110     1.0720    10.7380 h1         1 78G       0.040333
     45 H19         -6.7430     0.7810     9.1570 h1         1 78G       0.040333
     46 H18         -7.2130     2.4160     9.6460 h1         1 78G       0.040333
     47 H22         -4.3790    -3.5850     5.6900 hx         1 78G       0.101000
     48 H21         -5.6320    -3.0960     6.8510 hx         1 78G       0.101000
     49 H23         -2.6800    -3.6380     7.3880 hc         1 78G       0.134500
     50 H24         -3.7880    -2.9710     8.5950 hc         1 78G       0.134500
     51 H1           5.0120     0.0040     0.9060 h5         1 78G       0.152000
     52 H2          -1.4750    -0.0590     1.5160 h5         1 78G       0.149000
     53 H3           1.3480    -0.5590     4.0130 h2         1 78G       0.106000
     54 H4          -0.3460    -0.6430     6.0530 h1         1 78G       0.086000
     55 H5          -1.2510     2.0770     5.1240 h1         1 78G       0.087000
     56 H6           0.1990     2.1320     3.3390 h1         1 78G       0.093000
     57 H26         -4.7270    -4.3710     8.6160 DU         1 78G       0.174000
     58 H27         -6.2260    -4.4500     8.0690 hn         1 78G       0.064500
     59 H12          1.4340    -0.8190    -2.4500 hn         1 78G       0.053500
     60 H11          1.4290     0.8030    -2.1470 hn         1 78G       0.053500
     61 H14         -6.3960    -3.8250     5.8760 hn         1 78G       0.033000
     62 H15         -7.7020    -3.8310     4.9660 hn         1 78G       0.033000
     63 H7           2.5090     1.3500     4.0040 ho         1 78G       0.229000
     64 H8           1.1030     1.3060     6.5250 ho         1 78G       0.225000
     65 H33         -4.2680    -1.1100     7.2050 hn         1 78G       0.068000
     66 C15         -8.7400     1.3770     7.6590 c3         1 78G       0.062000
     67 O4          -8.7530     1.1900     9.0760 os         1 78G      -0.194000
     68 H16         -9.0670     2.2700     7.1420 h2         1 78G       0.083500
     69 H17         -7.6810     1.4450     7.8760 h2         1 78G       0.083500
     70 H103        -5.7050    -4.7360     9.5860 hn         1 78G       0.064500
     71 H93         -6.3890    -3.0480     4.4140 hn         1 78G       0.033000
     72 O6          -2.0930    -6.1510     8.6820 o          1 78G      -0.460500
     73 C16         -7.4770     1.3670     9.6960 c3         1 78G       0.055000
@<TRIPOS>BOND
     1     1    16 1   
     2     1    19 1   
     3     2     5 1   
     4     2    15 1   
     5     2    25 1   
     6     2    36 1   
     7     2    57 1   
     8     3     4 1   
     9     3    21 1   
    10     3    37 1   
    11     3    38 1   
    12     4     6 1   
    13     4    39 1   
    14     4    40 1   
    15     5     7 1   
    16     5    72 1   
    17     6     9 1   
    18     6    14 1   
    19     6    65 1   
    20     8    16 1   
    21     8    26 1   
    22     8    28 1   
    23     9    10 1   
    24     9    41 1   
    25     9    42 1   
    26    10    11 1   
    27    10    13 1   
    28    11    29 1   
    29    11    31 1   
    30    12    29 1   
    31    12    30 1   
    32    12    35 1   
    33    13    30 1   
    34    13    43 1   
    35    14    15 1   
    36    14    47 1   
    37    14    48 1   
    38    15    49 1   
    39    15    50 1   
    40    16    17 1   
    41    17    24 1   
    42    17    27 1   
    43    18    24 1   
    44    18    26 1   
    45    18    51 1   
    46    19    27 1   
    47    19    52 1   
    48    20    23 1   
    49    20    27 1   
    50    20    32 1   
    51    20    53 1   
    52    21    22 1   
    53    21    32 1   
    54    21    54 1   
    55    22    23 1   
    56    22    34 1   
    57    22    55 1   
    58    23    33 1   
    59    23    56 1   
    60    25    57 1   
    61    25    58 1   
    62    25    70 1   
    63    28    59 1   
    64    28    60 1   
    65    30    66 1   
    66    31    61 1   
    67    31    62 1   
    68    31    71 1   
    69    33    63 1   
    70    34    64 1   
    71    44    73 1   
    72    45    73 1   
    73    46    73 1   
    74    66    67 1   
    75    66    68 1   
    76    66    69 1   
    77    67    73 1   
@<TRIPOS>SUBSTRUCTURE
     1 78G         1 TEMP              0 ****  ****    0 ROOT
