@<TRIPOS>MOLECULE
molecule
   73    76     1     0     0
SMALL
bcc


@<TRIPOS>ATOM
      1 N4           0.0000     0.0000     0.0000 nc         1 78G      -0.563100
      2 C19         -4.1920    -5.0080     8.0610 c3         1 78G       0.050500
      3 C21         -2.3840    -0.1100     5.7310 c3         1 78G      -0.077400
      4 C22         -2.8260    -1.5700     5.8490 c3         1 78G       0.123800
      5 C20         -3.2610    -5.6210     9.0760 c          1 78G       0.848600
      6 N5          -4.2060    -1.6260     6.3490 nx         1 78G      -0.678400
      7 O7          -3.5670    -5.6340    10.2450 o          1 78G      -0.677300
      8 C1           2.3430     0.0010    -0.9990 ca         1 78G       0.680200
      9 C10         -5.1130    -1.0410     5.3520 c3         1 78G       0.171000
     10 C11         -6.5100    -0.9860     5.9150 cd         1 78G      -0.494800
     11 C12         -7.3590    -2.1080     5.8340 cd         1 78G       0.554500
     12 C13         -9.0190    -0.9260     6.9240 c          1 78G       0.786900
     13 C14         -6.9660     0.1410     6.5120 cc         1 78G       0.159600
     14 C17         -4.5820    -3.0240     6.5950 c3         1 78G       0.049800
     15 C18         -3.7130    -3.5980     7.7150 c3         1 78G      -0.203400
     16 C2           1.3550     0.0000     0.0000 ca         1 78G      -0.216200
     17 C3           1.7690     0.0000     1.3430 ca         1 78G       0.458800
     18 C4           3.9600     0.0020     0.6490 ca         1 78G       0.741900
     19 C5          -0.4330     0.0000     1.2270 cd         1 78G       0.425700
     20 C6           0.5400    -0.0010     3.5550 c3         1 78G       0.226800
     21 C7          -0.9070    -0.0540     5.3370 c3         1 78G       0.099100
     22 C8          -0.4160     1.4090     5.2960 c3         1 78G       0.130100
     23 C9           0.5580     1.4460     4.0970 c3         1 78G       0.077100
     24 N1           3.0700     0.0010     1.6180 nb         1 78G      -0.784000
     25 N10         -5.5500    -4.9420     8.6190 nz         1 78G      -0.984600
     26 N2           3.6200     0.0020    -0.6270 nb         1 78G      -0.704000
     27 N3           0.6200    -0.0000     2.0930 na         1 78G      -0.270000
     28 N6           1.9970     0.0010    -2.3380 nv         1 78G      -0.793500
     29 N7          -8.5840    -2.0420     6.3410 nc         1 78G      -0.569100
     30 N8          -8.2340     0.1640     7.0120 n          1 78G      -0.318000
     31 N9          -6.9210    -3.2650     5.2340 nz         1 78G      -0.765600
     32 O1          -0.7270    -0.5420     3.9900 os         1 78G      -0.433600
     33 O2           1.8720     1.8030     4.5310 oh         1 78G      -0.575800
     34 O3           0.2670     1.7430     6.5070 oh         1 78G      -0.566800
     35 O5         -10.1470    -0.8910     7.3860 o          1 78G      -0.416500
     36 H25         -4.2070    -5.6170     7.1640 hx         1 78G       0.145700
     37 H29         -2.5040     0.3720     6.6940 hc         1 78G       0.078700
     38 H30         -2.9820     0.3880     4.9770 hc         1 78G       0.078700
     39 H32         -2.2210    -1.9110     6.6810 hx         1 78G       0.103700
     40 H31         -2.8660    -2.4590     5.2310 hx         1 78G       0.103700
     41 H10         -4.7890    -0.0360     5.1100 hx         1 78G       0.120200
     42 H9          -5.1070    -1.6420     4.4510 hx         1 78G       0.120200
     43 H13         -6.3730     1.0480     6.5370 h4         1 78G       0.205000
     44 H20         -7.5110     1.0720    10.7380 h1         1 78G       0.048367
     45 H19         -6.7430     0.7810     9.1570 h1         1 78G       0.048367
     46 H18         -7.2130     2.4160     9.6460 h1         1 78G       0.048367
     47 H22         -4.3790    -3.5850     5.6900 hx         1 78G       0.075700
     48 H21         -5.6320    -3.0960     6.8510 hx         1 78G       0.075700
     49 H23         -2.6800    -3.6380     7.3880 hc         1 78G       0.132200
     50 H24         -3.7880    -2.9710     8.5950 hc         1 78G       0.132200
     51 H1           5.0120     0.0040     0.9060 h5         1 78G       0.085100
     52 H2          -1.4750    -0.0590     1.5160 h5         1 78G       0.068800
     53 H3           1.3480    -0.5590     4.0130 h2         1 78G       0.105700
     54 H4          -0.3460    -0.6430     6.0530 h1         1 78G       0.079700
     55 H5          -1.2510     2.0770     5.1240 h1         1 78G       0.093700
     56 H6           0.1990     2.1320     3.3390 h1         1 78G       0.093700
     57 H26         -4.7270    -4.3710     8.6160 hn         1 78G       0.459467
     58 H27         -6.2260    -4.4500     8.0690 hn         1 78G       0.459467
     59 H12          1.4340    -0.8190    -2.4500 hn         1 78G       0.371800
     60 H11          1.4290     0.8030    -2.1470 hn         1 78G       0.371800
     61 H14         -6.3960    -3.8250     5.8760 hn         1 78G       0.479800
     62 H15         -7.7020    -3.8310     4.9660 hn         1 78G       0.479800
     63 H7           2.5090     1.3500     4.0040 ho         1 78G       0.445000
     64 H8           1.1030     1.3060     6.5250 ho         1 78G       0.438000
     65 H33         -4.2680    -1.1100     7.2050 hn         1 78G       0.453800
     66 C15         -8.7400     1.3770     7.6590 c3         1 78G       0.298800
     67 O4          -8.7530     1.1900     9.0760 os         1 78G      -0.353600
     68 H16         -9.0670     2.2700     7.1420 h2         1 78G       0.091200
     69 H17         -7.6810     1.4450     7.8760 h2         1 78G       0.091200
     70 H103        -5.7050    -4.7360     9.5860 hn         1 78G       0.459467
     71 H93         -6.3890    -3.0480     4.4140 hn         1 78G       0.479800
     72 O6          -2.0930    -6.1510     8.6820 o          1 78G      -0.677300
     73 C16         -7.4770     1.3670     9.6960 c3         1 78G       0.114700
@<TRIPOS>BOND
     1    28     8 1
     2     8    26 ar
     3     8    16 ar
     4    26    18 ar
     5    18    24 ar
     6    16     1 1
     7    16    17 ar
     8     1    19 2
     9    17    24 ar
    10    17    27 1
    11    19    27 1
    12    33    23 1
    13    27    20 1
    14    23    20 1
    15    23    22 1
    16    20    32 1
    17    22    34 1
    18    22    21 1
    19    32    21 1
    20    21     3 1
    21     3     4 1
    22    31    11 1
    23    29    11 2
    24    29    12 1
    25    35    12 2
    26    11    10 1
    27    12    30 1
    28     4     6 1
    29     6    14 1
    30     6     9 1
    31    30    66 1
    32    30    13 1
    33    10    13 2
    34    10     9 1
    35    14    15 1
    36    66    67 1
    37    15     2 1
    38    67    73 1
    39     2    25 1
    40     2     5 1
    41    72     5 1
    42     5     7 1
    43     2    36 1
    44     3    37 1
    45     3    38 1
    46     4    39 1
    47     4    40 1
    48     9    41 1
    49     9    42 1
    50    13    43 1
    51    66    68 1
    52    66    69 1
    53    73    44 1
    54    73    45 1
    55    73    46 1
    56    14    47 1
    57    14    48 1
    58    15    49 1
    59    15    50 1
    60    18    51 1
    61    19    52 1
    62    20    53 1
    63    21    54 1
    64    22    55 1
    65    23    56 1
    66    25    57 1
    67    25    58 1
    68    28    59 1
    69    28    60 1
    70    31    61 1
    71    31    62 1
    72    33    63 1
    73    34    64 1
    74     6    65 1
    75    70    25 1
    76    71    31 1
@<TRIPOS>SUBSTRUCTURE
     1 78G         1 TEMP              0 ****  ****    0 ROOT
