@<TRIPOS>MOLECULE
molecule
   37    39     1     0     0
SMALL
bcc


@<TRIPOS>ATOM
      1 O4           0.0000     0.0000     0.0000 o          1 78H      -0.528500
      2 C4           1.2210     0.0000     0.0000 c          1 78H       0.702700
      3 C5           1.9420     0.0000     1.2090 cc         1 78H       0.040400
      4 N3           1.9120    -0.0060    -1.1610 ns         1 78H      -0.453400
      5 C9           3.3440    -0.0100     1.1520 cd         1 78H       0.326600
      6 N5           1.3110    -0.0060     2.4170 ne         1 78H      -0.547300
      7 C2           3.2740    -0.0060    -1.1530 cc         1 78H       0.433800
      8 N8           4.0480    -0.0270     2.3400 nu         1 78H      -0.780000
      9 N1           3.9610    -0.0040    -0.0270 nd         1 78H      -0.598300
     10 C6           1.9410     0.2400     3.5130 c2         1 78H       0.461300
     11 N2           3.9460    -0.0070    -2.3450 nz         1 78H      -0.724600
     12 C7           3.4080     0.5860     3.5150 c3         1 78H       0.143500
     13 C10          1.1960     0.1800     4.8210 c3         1 78H       0.209500
     14 N11         -0.2040    -0.1730     4.5700 nu         1 78H      -0.841600
     15 C15         -1.0930    -0.2880     5.6320 ca         1 78H       0.150600
     16 C16         -2.4230    -0.6240     5.3920 ca         1 78H      -0.227000
     17 C17         -0.6500    -0.0740     6.9350 ca         1 78H      -0.227000
     18 C18         -3.3030    -0.7370     6.4380 ca         1 78H      -0.059500
     19 C19         -1.5250    -0.1870     7.9850 ca         1 78H      -0.059500
     20 C20         -2.8630    -0.5170     7.7460 ca         1 78H      -0.133600
     21 C21         -3.8060    -0.6380     8.8730 c          1 78H       0.883200
     22 O22         -4.9670    -0.9300     8.6650 o          1 78H      -0.834800
     23 O23         -3.3790    -0.4260    10.1340 o          1 78H      -0.834800
     24 H3           1.4200    -0.0070    -2.0320 hn         1 78H       0.341500
     25 H21N         3.7290    -0.8440    -2.8500 hn         1 78H       0.473467
     26 H22N         3.6700     0.7890    -2.8850 hn         1 78H       0.473467
     27 H71          3.8680     0.2020     4.4180 h1         1 78H       0.082200
     28 H72          3.5250     1.6620     3.4710 h1         1 78H       0.082200
     29 H101         1.2430     1.1470     5.3080 h1         1 78H       0.070700
     30 H102         1.6480    -0.5690     5.4600 h1         1 78H       0.070700
     31 H11         -0.5190    -0.3330     3.6340 hn         1 78H       0.453800
     32 H16         -2.7630    -0.7950     4.3780 ha         1 78H       0.100500
     33 H17          0.3860     0.1830     7.1190 ha         1 78H       0.100500
     34 H18         -4.3480    -0.9440     6.2460 ha         1 78H       0.155000
     35 H19         -1.1910     0.0240     8.9940 ha         1 78H       0.155000
     36 HN8          4.9580    -0.4390     2.3990 hn         1 78H       0.468800
     37 H23          4.9320     0.0200    -2.1720 hn         1 78H       0.473467
@<TRIPOS>BOND
     1     1     2 2   
     2     2     3 1   
     3     2     4 1   
     4     3     5 2   
     5     3     6 1   
     6     4     7 1   
     7     5     8 1   
     8     5     9 1   
     9     6    10 2   
    10     7     9 2   
    11     7    11 1   
    12     8    12 1   
    13    10    12 1   
    14    10    13 1   
    15    13    14 1   
    16    14    15 1   
    17    15    16 ar  
    18    15    17 ar  
    19    16    18 ar  
    20    17    19 ar  
    21    18    20 ar  
    22    19    20 ar  
    23    20    21 1   
    24    21    22 1   
    25    21    23 1   
    26     4    24 1   
    27    11    25 1   
    28    11    26 1   
    29    12    27 1   
    30    12    28 1   
    31    13    29 1   
    32    13    30 1   
    33    14    31 1   
    34    16    32 1   
    35    17    33 1   
    36    18    34 1   
    37    19    35 1   
    38     8    36 1   
    39    37    11 1   
@<TRIPOS>SUBSTRUCTURE
     1 78H         1 TEMP              0 ****  ****    0 ROOT
