@<TRIPOS>MOLECULE
molecule
   57    60     1     0     0
SMALL
bcc


@<TRIPOS>ATOM
      1 C01          0.0000     0.0000     0.0000 c3         1 78J      -0.033900
      2 C05          1.5070     0.0000     0.0000 cc         1 78J      -0.168400
      3 C06          2.1830     0.0000     1.1750 cd         1 78J      -0.058200
      4 C08          3.6450     0.0000     1.1370 ca         1 78J      -0.055800
      5 C09          4.4210    -0.0000     2.3040 ca         1 78J      -0.267300
      6 C11          5.7830    -0.0000     2.1890 ca         1 78J       0.439200
      7 N13          6.3760    -0.0000     1.0070 nb         1 78J      -0.743000
      8 C14          5.6990     0.0000    -0.1280 ca         1 78J       0.684200
      9 N15          6.3770     0.0000    -1.3420 nu         1 78J      -0.909900
     10 C17          7.8420     0.0000    -1.3640 c3         1 78J       0.254500
     11 C19          8.3550     1.4370    -1.2450 c3         1 78J      -0.095400
     12 C22          9.8830     1.4360    -1.3290 c3         1 78J       0.155800
     13 N25         10.3040     0.8510    -2.6080 n7         1 78J      -0.823200
     14 C27          9.8630    -0.5450    -2.7240 c3         1 78J       0.137800
     15 C30          8.3340    -0.6030    -2.6820 c3         1 78J       0.131100
     16 O32          7.9060    -1.9640    -2.7740 os         1 78J      -0.421600
     17 C33          7.6870    -2.4140    -4.1120 c3         1 78J       0.138400
     18 C36          7.2340    -3.8750    -4.0900 c3         1 78J      -0.067700
     19 C38          6.8800    -4.3210    -5.5110 c3         1 78J      -0.073900
     20 C41          6.4270    -5.7820    -5.4890 c3         1 78J      -0.078400
     21 C44          7.5580    -6.6590    -4.9460 c3         1 78J      -0.081400
     22 C47          7.9110    -6.2130    -3.5260 c3         1 78J      -0.078400
     23 C50          8.3650    -4.7520    -3.5470 c3         1 78J      -0.073900
     24 C53          4.2990    -0.0000    -0.1080 ca         1 78J      -0.102700
     25 N54          3.5560    -0.0000    -1.2670 ns         1 78J      -0.418100
     26 C56          2.2120    -0.0060    -1.2260 c          1 78J       0.695700
     27 O57          1.5850    -0.0120    -2.2710 o          1 78J      -0.649500
     28 H011        -0.3610    -0.9890    -0.2560 hc         1 78J       0.052033
     29 H012        -0.3610     0.7160    -0.7280 hc         1 78J       0.052033
     30 H013        -0.3610     0.2730     0.9840 hc         1 78J       0.052033
     31 H06          1.6650    -0.2330     2.0980 ha         1 78J       0.147000
     32 H09          3.9490    -0.0010     3.2790 ha         1 78J       0.142000
     33 H11          6.3900    -0.0010     3.0860 h4         1 78J       0.024100
     34 H15          5.8640     0.0340    -2.2010 hn         1 78J       0.439800
     35 H17          8.2210    -0.5870    -0.5360 h1         1 78J       0.091700
     36 H191         7.9500     2.0320    -2.0540 hc         1 78J       0.060700
     37 H192         8.0470     1.8520    -0.2930 hc         1 78J       0.060700
     38 H30          7.9300    -0.0350    -3.5110 h1         1 78J       0.049700
     39 H221        10.2880     0.8480    -0.5140 h1         1 78J       0.037700
     40 H222        10.2480     2.4540    -1.2630 h1         1 78J       0.037700
     41 H25         11.3010     0.8930    -2.6820 hn         1 78J       0.358800
     42 H271        10.2670    -1.1190    -1.8990 h1         1 78J       0.043200
     43 H272        10.2130    -0.9560    -3.6630 h1         1 78J       0.043200
     44 H331         6.9220    -1.8050    -4.5780 h1         1 78J       0.023700
     45 H332         8.6080    -2.3300    -4.6770 h1         1 78J       0.023700
     46 H36          6.3630    -3.9780    -3.4540 hc         1 78J       0.064700
     47 H381         6.0780    -3.7010    -5.8930 hc         1 78J       0.044200
     48 H382         7.7530    -4.2240    -6.1460 hc         1 78J       0.044200
     49 H501         8.6120    -4.4380    -2.5410 hc         1 78J       0.044200
     50 H502         9.2340    -4.6540    -4.1860 hc         1 78J       0.044200
     51 H411         6.1790    -6.0970    -6.4950 hc         1 78J       0.041950
     52 H412         5.5580    -5.8790    -4.8500 hc         1 78J       0.041950
     53 H441         8.4290    -6.5580    -5.5820 hc         1 78J       0.040200
     54 H442         7.2350    -7.6930    -4.9290 hc         1 78J       0.040200
     55 H471         7.0380    -6.3090    -2.8920 hc         1 78J       0.041950
     56 H472         8.7120    -6.8330    -3.1440 hc         1 78J       0.041950
     57 H54          4.0230    -0.0050    -2.1530 hn         1 78J       0.332500
@<TRIPOS>BOND
     1     1     2 1   
     2     2     3 2   
     3     2    26 1   
     4     3     4 1   
     5     4     5 ar  
     6     4    24 ar  
     7     5     6 ar  
     8     6     7 ar  
     9     7     8 ar  
    10     8     9 1   
    11     8    24 ar  
    12     9    10 1   
    13    10    11 1   
    14    10    15 1   
    15    11    12 1   
    16    12    13 1   
    17    13    14 1   
    18    14    15 1   
    19    15    16 1   
    20    16    17 1   
    21    17    18 1   
    22    18    19 1   
    23    18    23 1   
    24    19    20 1   
    25    20    21 1   
    26    21    22 1   
    27    22    23 1   
    28    24    25 1   
    29    25    26 1   
    30    26    27 2   
    31     1    28 1   
    32     1    29 1   
    33     1    30 1   
    34     3    31 1   
    35     5    32 1   
    36     6    33 1   
    37     9    34 1   
    38    10    35 1   
    39    11    36 1   
    40    11    37 1   
    41    15    38 1   
    42    12    39 1   
    43    12    40 1   
    44    13    41 1   
    45    14    42 1   
    46    14    43 1   
    47    17    44 1   
    48    17    45 1   
    49    18    46 1   
    50    19    47 1   
    51    19    48 1   
    52    23    49 1   
    53    23    50 1   
    54    20    51 1   
    55    20    52 1   
    56    21    53 1   
    57    21    54 1   
    58    22    55 1   
    59    22    56 1   
    60    25    57 1   
@<TRIPOS>SUBSTRUCTURE
     1 78J         1 TEMP              0 ****  ****    0 ROOT
