@<TRIPOS>MOLECULE
78J
   57    60     1     0     0
SMALL
bcc


@<TRIPOS>ATOM
      1 C01          0.0000     0.0000     0.0000 c3         1 78J       0.077100
      2 C05          1.5070     0.0000     0.0000 cc         1 78J      -0.176400
      3 C06          2.1830     0.0000     1.1750 cd         1 78J      -0.034200
      4 C08          3.6450     0.0000     1.1370 ca         1 78J      -0.045800
      5 C09          4.4210    -0.0000     2.3040 ca         1 78J      -0.240300
      6 C11          5.7830    -0.0000     2.1890 ca         1 78J       0.427200
      7 N13          6.3760    -0.0000     1.0070 nb         1 78J      -0.633000
      8 C14          5.6990     0.0000    -0.1280 ca         1 78J       0.503200
      9 N15          6.3770     0.0000    -1.3420 nu         1 78J      -0.502900
     10 C17          7.8420     0.0000    -1.3640 c3         1 78J       0.135500
     11 C19          8.3550     1.4370    -1.2450 c3         1 78J      -0.043400
     12 C22          9.8830     1.4360    -1.3290 c3         1 78J       0.149800
     13 N25         10.3040     0.8510    -2.6080 n7         1 78J      -0.580200
     14 C27          9.8630    -0.5450    -2.7240 c3         1 78J       0.120800
     15 C30          8.3340    -0.6030    -2.6820 c3         1 78J       0.166100
     16 O32          7.9060    -1.9640    -2.7740 os         1 78J      -0.405600
     17 C33          7.6870    -2.4140    -4.1120 c3         1 78J       0.208400
     18 C36          7.2340    -3.8750    -4.0900 c3         1 78J      -0.056700
     19 C38          6.8800    -4.3210    -5.5110 c3         1 78J      -0.021900
     20 C41          6.4270    -5.7820    -5.4890 c3         1 78J      -0.022900
     21 C44          7.5580    -6.6590    -4.9460 c3         1 78J      -0.025400
     22 C47          7.9110    -6.2130    -3.5260 c3         1 78J      -0.022900
     23 C50          8.3650    -4.7520    -3.5470 c3         1 78J      -0.021900
     24 C53          4.2990    -0.0000    -0.1080 ca         1 78J      -0.265700
     25 N54          3.5560    -0.0000    -1.2670 ns         1 78J       0.059900
     26 C56          2.2120    -0.0060    -1.2260 c          1 78J       0.592700
     27 O57          1.5850    -0.0120    -2.2710 o          1 78J      -0.696500
     28 H011        -0.3610    -0.9890    -0.2560 hc         1 78J       0.014367
     29 H012        -0.3610     0.7160    -0.7280 hc         1 78J       0.014367
     30 H013        -0.3610     0.2730     0.9840 hc         1 78J       0.014367
     31 H06          1.6650    -0.2330     2.0980 ha         1 78J       0.118000
     32 H09          3.9490    -0.0010     3.2790 ha         1 78J       0.119000
     33 H11          6.3900    -0.0010     3.0860 h4         1 78J      -0.021900
     34 H15          5.8640     0.0340    -2.2010 hn         1 78J       0.290800
     35 H17          8.2210    -0.5870    -0.5360 h1         1 78J       0.066700
     36 H191         7.9500     2.0320    -2.0540 hc         1 78J       0.030200
     37 H192         8.0470     1.8520    -0.2930 hc         1 78J       0.030200
     38 H30          7.9300    -0.0350    -3.5110 h1         1 78J       0.021700
     39 H221        10.2880     0.8480    -0.5140 h1         1 78J       0.009700
     40 H222        10.2480     2.4540    -1.2630 h1         1 78J       0.009700
     41 H25         11.3010     0.8930    -2.6820 hn         1 78J       0.255800
     42 H271        10.2670    -1.1190    -1.8990 h1         1 78J       0.016700
     43 H272        10.2130    -0.9560    -3.6630 h1         1 78J       0.016700
     44 H331         6.9220    -1.8050    -4.5780 h1         1 78J      -0.006300
     45 H332         8.6080    -2.3300    -4.6770 h1         1 78J      -0.006300
     46 H36          6.3630    -3.9780    -3.4540 hc         1 78J       0.038700
     47 H381         6.0780    -3.7010    -5.8930 hc         1 78J       0.017700
     48 H382         7.7530    -4.2240    -6.1460 hc         1 78J       0.017700
     49 H501         8.6120    -4.4380    -2.5410 hc         1 78J       0.017700
     50 H502         9.2340    -4.6540    -4.1860 hc         1 78J       0.017700
     51 H411         6.1790    -6.0970    -6.4950 hc         1 78J       0.014200
     52 H412         5.5580    -5.8790    -4.8500 hc         1 78J       0.014200
     53 H441         8.4290    -6.5580    -5.5820 hc         1 78J       0.013200
     54 H442         7.2350    -7.6930    -4.9290 hc         1 78J       0.013200
     55 H471         7.0380    -6.3090    -2.8920 hc         1 78J       0.014200
     56 H472         8.7120    -6.8330    -3.1440 hc         1 78J       0.014200
     57 H54          4.0230    -0.0050    -2.1530 hn         1 78J       0.170500
@<TRIPOS>BOND
     1     1     2 1   
     2     1    28 1   
     3     1    29 1   
     4     1    30 1   
     5     2     3 2   
     6     2    26 1   
     7     3     4 1   
     8     3    31 1   
     9     4     5 ar  
    10     4    24 ar  
    11     5     6 ar  
    12     5    32 1   
    13     6     7 ar  
    14     6    33 1   
    15     7     8 ar  
    16     8     9 1   
    17     8    24 ar  
    18     9    10 1   
    19     9    34 1   
    20    10    11 1   
    21    10    15 1   
    22    10    35 1   
    23    11    12 1   
    24    11    36 1   
    25    11    37 1   
    26    12    13 1   
    27    12    39 1   
    28    12    40 1   
    29    13    14 1   
    30    13    41 1   
    31    14    15 1   
    32    14    42 1   
    33    14    43 1   
    34    15    16 1   
    35    15    38 1   
    36    16    17 1   
    37    17    18 1   
    38    17    44 1   
    39    17    45 1   
    40    18    19 1   
    41    18    23 1   
    42    18    46 1   
    43    19    20 1   
    44    19    47 1   
    45    19    48 1   
    46    20    21 1   
    47    20    51 1   
    48    20    52 1   
    49    21    22 1   
    50    21    53 1   
    51    21    54 1   
    52    22    23 1   
    53    22    55 1   
    54    22    56 1   
    55    23    49 1   
    56    23    50 1   
    57    24    25 1   
    58    25    26 1   
    59    25    57 1   
    60    26    27 2   
@<TRIPOS>SUBSTRUCTURE
     1 78J         1 TEMP              0 ****  ****    0 ROOT
