@<TRIPOS>MOLECULE
molecule
   74    79     1     0     0
SMALL
bcc


@<TRIPOS>ATOM
      1 CAW          0.0000     0.0000     0.0000 c3         1 78L       0.122300
      2 CAX          1.5310     0.0000     0.0000 c3         1 78L       0.139900
      3 OAY          2.0030     0.0000     1.3500 os         1 78L      -0.424600
      4 CAZ          1.5510     1.1190     2.1180 c3         1 78L       0.139900
      5 CBA          0.0200     1.1300     2.1400 c3         1 78L       0.122300
      6 NAV         -0.4850     1.1620     0.7590 n3         1 78L      -0.724600
      7 CAU         -1.9510     1.2330     0.7360 c3         1 78L       0.144800
      8 CAT         -2.4080     2.5740     1.3140 c3         1 78L       0.112000
      9 NAR         -3.8710     2.6430     1.2910 ns         1 78L      -0.587900
     10 CAQ         -4.5010     3.7400     1.7550 c          1 78L       0.676700
     11 OAS         -3.8550     4.6720     2.1920 o          1 78L      -0.602100
     12 CAM         -5.9770     3.8100     1.7310 ca         1 78L      -0.153600
     13 CAL         -6.6330     4.9450     2.2110 ca         1 78L      -0.024000
     14 CAA         -8.0250     4.9820     2.1760 ca         1 78L      -0.153600
     15 CAG         -8.7730     6.1450     2.6880 c          1 78L       0.597300
     16 OAP         -8.6780     6.4440     3.8620 o          1 78L      -0.516100
     17 CAN         -6.7230     2.7430     1.2240 ca         1 78L      -0.096000
     18 CAO         -8.1020     2.8010     1.1960 ca         1 78L      -0.139000
     19 CAB         -8.7550     3.9270     1.6740 ca         1 78L      -0.034300
     20 CAC        -10.2500     4.0020     1.6310 c3         1 78L      -0.046100
     21 CAD        -10.7680     4.9570     0.5900 c3         1 78L      -0.031100
     22 CAE        -10.4920     6.4130     0.8650 ca         1 78L       0.008700
     23 CAH        -11.2110     7.2830     0.0620 ca         1 78L      -0.226000
     24 CAF         -9.6320     6.9520     1.8090 ca         1 78L      -0.207600
     25 CAK         -9.5360     8.3500     1.9640 ca         1 78L      -0.034000
     26 CAJ        -10.2590     9.1910     1.1760 ca         1 78L      -0.197000
     27 CAI        -11.1040     8.6570     0.2050 ca         1 78L       0.227600
     28 NBB        -11.8380     9.5010    -0.6200 nu         1 78L      -0.691000
     29 CBC        -11.8090    10.8840    -0.4090 ca         1 78L       0.102600
     30 CBD        -12.8970    11.5220     0.1690 ca         1 78L      -0.089000
     31 CBH        -10.6860    11.6210    -0.7740 ca         1 78L       0.134900
     32 FBI         -9.6240    11.0000    -1.3320 f          1 78L      -0.121900
     33 CBG        -10.6570    12.9880    -0.5660 ca         1 78L      -0.192000
     34 CBF        -11.7440    13.6260     0.0050 ca         1 78L       0.125900
     35 FBJ        -11.7130    14.9610     0.2070 f          1 78L      -0.133900
     36 CBE        -12.8660    12.8940     0.3760 ca         1 78L       0.015600
     37 NBK        -13.9630    13.5390     0.9590 ns         1 78L      -0.471100
     38 CBL        -14.6890    12.9130     1.9070 c          1 78L       0.712700
     39 OBN        -14.4420    11.7570     2.1970 o          1 78L      -0.586100
     40 CBM        -15.7770    13.6220     2.5850 cc         1 78L      -0.133700
     41 SBR        -16.2620    15.2830     2.2730 ss         1 78L      -0.095800
     42 CBQ        -17.4950    15.1930     3.4490 cc         1 78L      -0.077100
     43 CBP        -17.5200    13.9860     4.0240 cd         1 78L      -0.174000
     44 CBO        -16.5800    13.0980     3.5570 cd         1 78L      -0.067000
     45 H1          -0.3600     0.0590    -1.0200 h1         1 78L       0.044950
     46 H2          -0.3610    -0.9100     0.4650 h1         1 78L       0.044950
     47 H3           1.8920     0.8860    -0.5080 h1         1 78L       0.054950
     48 H4           1.8920    -0.8860    -0.5080 h1         1 78L       0.054950
     49 H5           1.9130     2.0350     1.6670 h1         1 78L       0.054950
     50 H6           1.9260     1.0360     3.1310 h1         1 78L       0.054950
     51 H7          -0.3260     2.0080     2.6710 h1         1 78L       0.044950
     52 H8          -0.3400     0.2360     2.6340 h1         1 78L       0.044950
     53 H10         -2.3010     1.1420    -0.2850 h1         1 78L       0.036700
     54 H11         -2.3600     0.4250     1.3310 h1         1 78L       0.036700
     55 H12         -2.0580     2.6640     2.3350 h1         1 78L       0.062700
     56 H13         -1.9990     3.3810     0.7190 h1         1 78L       0.062700
     57 H14         -4.4010     1.8890     0.8990 hn         1 78L       0.311500
     58 H15         -6.0860     5.6880     2.7770 ha         1 78L       0.171000
     59 H16         -6.2150     1.8620     0.8500 ha         1 78L       0.123000
     60 H17         -8.6730     1.9700     0.8010 ha         1 78L       0.135000
     61 H18        -10.5970     4.3410     2.5990 hc         1 78L       0.060200
     62 H19        -10.6280     3.0140     1.3970 hc         1 78L       0.060200
     63 H20        -11.8430     4.8320     0.5350 hc         1 78L       0.060200
     64 H21        -10.2960     4.7050    -0.3520 hc         1 78L       0.060200
     65 H22        -11.8710     6.8800    -0.6960 ha         1 78L       0.128000
     66 H23         -8.8780     8.7590     2.7210 ha         1 78L       0.148000
     67 H24        -10.1700    10.2650     1.2940 ha         1 78L       0.143000
     68 H25        -12.3600     9.1220    -1.3860 hn         1 78L       0.453800
     69 H26        -13.7710    10.9500     0.4580 ha         1 78L       0.189000
     70 H27         -9.7820    13.5590    -0.8510 ha         1 78L       0.167000
     71 H28        -14.2250    14.4550     0.6520 hn         1 78L       0.334500
     72 H29        -18.1660    16.0060     3.6980 h4         1 78L       0.176000
     73 H30        -18.2320    13.7260     4.7980 ha         1 78L       0.157000
     74 H31        -16.4820    12.0850     3.9290 ha         1 78L       0.174000
@<TRIPOS>BOND
     1     1     6 1
     2     1     2 1
     3     6     7 1
     4     6     5 1
     5     7     8 1
     6     5     4 1
     7     2     3 1
     8     4     3 1
     9     8     9 1
    10    11    10 2
    11    10     9 1
    12    10    12 1
    13    16    15 2
    14    12    13 ar
    15    12    17 ar
    16    13    14 ar
    17    17    18 ar
    18    15    14 1
    19    15    24 1
    20    14    19 ar
    21    18    19 ar
    22    19    20 1
    23    25    24 ar
    24    25    26 ar
    25    24    22 ar
    26    20    21 1
    27    26    27 ar
    28    22    21 1
    29    22    23 ar
    30    27    23 ar
    31    27    28 1
    32    32    31 1
    33    31    33 ar
    34    31    29 ar
    35    33    34 ar
    36    28    29 1
    37    29    30 ar
    38    34    35 1
    39    34    36 ar
    40    39    38 2
    41    30    36 ar
    42    36    37 1
    43    38    37 1
    44    38    40 1
    45    41    40 1
    46    41    42 1
    47    40    44 2
    48    42    43 2
    49    44    43 1
    50     1    45 1
    51     1    46 1
    52     2    47 1
    53     2    48 1
    54     4    49 1
    55     4    50 1
    56     5    51 1
    57     5    52 1
    58     7    53 1
    59     7    54 1
    60     8    55 1
    61     8    56 1
    62     9    57 1
    63    13    58 1
    64    17    59 1
    65    18    60 1
    66    20    61 1
    67    20    62 1
    68    21    63 1
    69    21    64 1
    70    23    65 1
    71    25    66 1
    72    26    67 1
    73    28    68 1
    74    30    69 1
    75    33    70 1
    76    37    71 1
    77    42    72 1
    78    43    73 1
    79    44    74 1
@<TRIPOS>SUBSTRUCTURE
     1 78L         1 TEMP              0 ****  ****    0 ROOT
