@<TRIPOS>MOLECULE
78L
   74    79     1     0     0
SMALL
bcc


@<TRIPOS>ATOM
      1 CAW          0.0000     0.0000     0.0000 c3         1 78L       0.106300
      2 CAX          1.5310     0.0000     0.0000 c3         1 78L       0.215400
      3 OAY          2.0030     0.0000     1.3500 os         1 78L      -0.412600
      4 CAZ          1.5510     1.1190     2.1180 c3         1 78L       0.215400
      5 CBA          0.0200     1.1300     2.1400 c3         1 78L       0.106300
      6 NAV         -0.4850     1.1620     0.7590 n3         1 78L      -0.529600
      7 CAU         -1.9510     1.2330     0.7360 c3         1 78L       0.141800
      8 CAT         -2.4080     2.5740     1.3140 c3         1 78L       0.041000
      9 NAR         -3.8710     2.6430     1.2910 ns         1 78L      -0.202900
     10 CAQ         -4.5010     3.7400     1.7550 c          1 78L       0.598700
     11 OAS         -3.8550     4.6720     2.1920 o          1 78L      -0.644100
     12 CAM         -5.9770     3.8100     1.7310 ca         1 78L      -0.166600
     13 CAL         -6.6330     4.9450     2.2110 ca         1 78L       0.016000
     14 CAA         -8.0250     4.9820     2.1760 ca         1 78L      -0.161600
     15 CAG         -8.7730     6.1450     2.6880 c          1 78L       0.659300
     16 OAP         -8.6780     6.4440     3.8620 o          1 78L      -0.553100
     17 CAN         -6.7230     2.7430     1.2240 ca         1 78L      -0.075000
     18 CAO         -8.1020     2.8010     1.1960 ca         1 78L      -0.112000
     19 CAB         -8.7550     3.9270     1.6740 ca         1 78L      -0.039300
     20 CAC        -10.2500     4.0020     1.6310 c3         1 78L       0.014900
     21 CAD        -10.7680     4.9570     0.5900 c3         1 78L       0.033900
     22 CAE        -10.4920     6.4130     0.8650 ca         1 78L       0.012700
     23 CAH        -11.2110     7.2830     0.0620 ca         1 78L      -0.214000
     24 CAF         -9.6320     6.9520     1.8090 ca         1 78L      -0.218600
     25 CAK         -9.5360     8.3500     1.9640 ca         1 78L       0.005000
     26 CAJ        -10.2590     9.1910     1.1760 ca         1 78L      -0.188000
     27 CAI        -11.1040     8.6570     0.2050 ca         1 78L       0.081600
     28 NBB        -11.8380     9.5010    -0.6200 nu         1 78L      -0.247000
     29 CBC        -11.8090    10.8840    -0.4090 ca         1 78L      -0.026400
     30 CBD        -12.8970    11.5220     0.1690 ca         1 78L      -0.062000
     31 CBH        -10.6860    11.6210    -0.7740 ca         1 78L       0.116900
     32 FBI         -9.6240    11.0000    -1.3320 f          1 78L      -0.116900
     33 CBG        -10.6570    12.9880    -0.5660 ca         1 78L      -0.146000
     34 CBF        -11.7440    13.6260     0.0050 ca         1 78L       0.103900
     35 FBJ        -11.7130    14.9610     0.2070 f          1 78L      -0.120900
     36 CBE        -12.8660    12.8940     0.3760 ca         1 78L      -0.118400
     37 NBK        -13.9630    13.5390     0.9590 ns         1 78L      -0.025100
     38 CBL        -14.6890    12.9130     1.9070 c          1 78L       0.629700
     39 OBN        -14.4420    11.7570     2.1970 o          1 78L      -0.631100
     40 CBM        -15.7770    13.6220     2.5850 cc         1 78L      -0.101700
     41 SBR        -16.2620    15.2830     2.2730 ss         1 78L      -0.224800
     42 CBQ        -17.4950    15.1930     3.4490 cc         1 78L       0.009900
     43 CBP        -17.5200    13.9860     4.0240 cd         1 78L      -0.147000
     44 CBO        -16.5800    13.0980     3.5570 cd         1 78L      -0.027000
     45 H1          -0.3600     0.0590    -1.0200 h1         1 78L       0.019450
     46 H2          -0.3610    -0.9100     0.4650 h1         1 78L       0.019450
     47 H3           1.8920     0.8860    -0.5080 h1         1 78L       0.013700
     48 H4           1.8920    -0.8860    -0.5080 h1         1 78L       0.013700
     49 H5           1.9130     2.0350     1.6670 h1         1 78L       0.013700
     50 H6           1.9260     1.0360     3.1310 h1         1 78L       0.013700
     51 H7          -0.3260     2.0080     2.6710 h1         1 78L       0.019450
     52 H8          -0.3400     0.2360     2.6340 h1         1 78L       0.019450
     53 H10         -2.3010     1.1420    -0.2850 h1         1 78L       0.010200
     54 H11         -2.3600     0.4250     1.3310 h1         1 78L       0.010200
     55 H12         -2.0580     2.6640     2.3350 h1         1 78L       0.036200
     56 H13         -1.9990     3.3810     0.7190 h1         1 78L       0.036200
     57 H14         -4.4010     1.8890     0.8990 hn         1 78L       0.177500
     58 H15         -6.0860     5.6880     2.7770 ha         1 78L       0.138000
     59 H16         -6.2150     1.8620     0.8500 ha         1 78L       0.098000
     60 H17         -8.6730     1.9700     0.8010 ha         1 78L       0.109000
     61 H18        -10.5970     4.3410     2.5990 hc         1 78L       0.028200
     62 H19        -10.6280     3.0140     1.3970 hc         1 78L       0.028200
     63 H20        -11.8430     4.8320     0.5350 hc         1 78L       0.026700
     64 H21        -10.2960     4.7050    -0.3520 hc         1 78L       0.026700
     65 H22        -11.8710     6.8800    -0.6960 ha         1 78L       0.111000
     66 H23         -8.8780     8.7590     2.7210 ha         1 78L       0.114000
     67 H24        -10.1700    10.2650     1.2940 ha         1 78L       0.122000
     68 H25        -12.3600     9.1220    -1.3860 hn         1 78L       0.291800
     69 H26        -13.7710    10.9500     0.4580 ha         1 78L       0.163000
     70 H27         -9.7820    13.5590    -0.8510 ha         1 78L       0.139000
     71 H28        -14.2250    14.4550     0.6520 hn         1 78L       0.184500
     72 H29        -18.1660    16.0060     3.6980 h4         1 78L       0.152000
     73 H30        -18.2320    13.7260     4.7980 ha         1 78L       0.127000
     74 H31        -16.4820    12.0850     3.9290 ha         1 78L       0.141000
@<TRIPOS>BOND
     1     1     2 1   
     2     1     6 1   
     3     1    45 1   
     4     1    46 1   
     5     2     3 1   
     6     2    47 1   
     7     2    48 1   
     8     3     4 1   
     9     4     5 1   
    10     4    49 1   
    11     4    50 1   
    12     5     6 1   
    13     5    51 1   
    14     5    52 1   
    15     6     7 1   
    16     7     8 1   
    17     7    53 1   
    18     7    54 1   
    19     8     9 1   
    20     8    55 1   
    21     8    56 1   
    22     9    10 1   
    23     9    57 1   
    24    10    11 2   
    25    10    12 1   
    26    12    13 ar  
    27    12    17 ar  
    28    13    14 ar  
    29    13    58 1   
    30    14    15 1   
    31    14    19 ar  
    32    15    16 2   
    33    15    24 1   
    34    17    18 ar  
    35    17    59 1   
    36    18    19 ar  
    37    18    60 1   
    38    19    20 1   
    39    20    21 1   
    40    20    61 1   
    41    20    62 1   
    42    21    22 1   
    43    21    63 1   
    44    21    64 1   
    45    22    23 ar  
    46    22    24 ar  
    47    23    27 ar  
    48    23    65 1   
    49    24    25 ar  
    50    25    26 ar  
    51    25    66 1   
    52    26    27 ar  
    53    26    67 1   
    54    27    28 1   
    55    28    29 1   
    56    28    68 1   
    57    29    30 ar  
    58    29    31 ar  
    59    30    36 ar  
    60    30    69 1   
    61    31    32 1   
    62    31    33 ar  
    63    33    34 ar  
    64    33    70 1   
    65    34    35 1   
    66    34    36 ar  
    67    36    37 1   
    68    37    38 1   
    69    37    71 1   
    70    38    39 2   
    71    38    40 1   
    72    40    41 1   
    73    40    44 2   
    74    41    42 1   
    75    42    43 2   
    76    42    72 1   
    77    43    44 1   
    78    43    73 1   
    79    44    74 1   
@<TRIPOS>SUBSTRUCTURE
     1 78L         1 TEMP              0 ****  ****    0 ROOT
