@<TRIPOS>MOLECULE
78M
   56    55     1     0     0
SMALL
bcc


@<TRIPOS>ATOM
      1 O21        -0.0780   -1.1720    0.5300 oh        1 78M     -0.611800
      2 C20         1.3220   -1.2550    0.3150 c3        1 78M      0.092400
      3 C18         1.9380   -0.0860    1.0920 c3        1 78M      0.140100
      4 O19         1.4300    1.1500    0.6130 oh        1 78M     -0.599800
      5 C17         3.4520   -0.0460    0.8780 c3        1 78M      0.138400
      6 O2          4.0270    0.1000    2.1860 os        1 78M     -0.444900
      7 C1          5.3860    0.2610    2.2440 c         1 78M      0.634100
      8 O1          6.0210    0.2190    1.1890 o         1 78M     -0.541000
      9 C2          5.8780    0.4800    3.6400 c3        1 78M     -0.127400
     10 C3          7.2330   -0.1640    3.8470 c3        1 78M     -0.079400
     11 C4          7.7870    0.1800    5.2130 c3        1 78M     -0.079400
     12 C5          9.1330   -0.4770    5.4330 c3        1 78M     -0.077400
     13 C6          9.6910   -0.1300    6.7980 c3        1 78M     -0.048200
     14 C7         11.0090   -0.7620    7.0430 c2        1 78M     -0.176200
     15 C8         11.6890   -0.6410    8.1880 c2        1 78M     -0.171200
     16 C9         11.2070    0.1380    9.3530 c3        1 78M     -0.049200
     17 C10        12.2020    0.1400   10.4950 c3        1 78M     -0.077400
     18 C11        11.6840    0.9430   11.6690 c3        1 78M     -0.079400
     19 C12        12.6770    0.9460   12.8120 c3        1 78M     -0.079400
     20 C13        12.1590    1.7480   13.9870 c3        1 78M     -0.079400
     21 C15        12.6410    2.5490   16.3030 c3        1 78M     -0.092100
     22 C14        13.1520    1.7520   15.1300 c3        1 78M     -0.080400
     23 H21        -0.4870   -1.8450   -0.0270 ho        1 78M      0.410000
     24 H201        1.5530   -1.1630   -0.7790 h1        1 78M      0.037700
     25 H202        1.7140   -2.2310    0.7040 h1        1 78M      0.037700
     26 H18         1.6940   -0.1930    2.1870 h1        1 78M      0.069700
     27 H19         0.4670    1.0970    0.6840 ho        1 78M      0.421000
     28 H171        3.7490    0.8280    0.2410 h1        1 78M      0.068200
     29 H172        3.8350   -0.9950    0.4240 h1        1 78M      0.068200
     30 H21C        5.9450    1.5910    3.7990 hc        1 78M      0.079200
     31 H22C        5.1310    0.0740    4.3720 hc        1 78M      0.079200
     32 H31C        7.9380    0.1840    3.0460 hc        1 78M      0.057700
     33 H32C        7.1400   -1.2770    3.7440 hc        1 78M      0.057700
     34 H41C        7.8910    1.2930    5.3080 hc        1 78M      0.041200
     35 H42C        7.0690   -0.1560    6.0070 hc        1 78M      0.041200
     36 H51C        9.8490   -0.1430    4.6370 hc        1 78M      0.044700
     37 H52C        9.0290   -1.5900    5.3410 hc        1 78M      0.044700
     38 H61C        9.7910    0.9870    6.8910 hc        1 78M      0.047200
     39 H62C        8.9660   -0.4550    7.5950 hc        1 78M      0.047200
     40 H7         11.4210   -1.3570    6.2110 ha        1 78M      0.123000
     41 H8         12.6670   -1.1350    8.3090 ha        1 78M      0.123000
     42 H91C       10.9980    1.1970    9.0340 hc        1 78M      0.047700
     43 H92C       10.2280   -0.2890    9.7070 hc        1 78M      0.047700
     44 H101       12.4030   -0.9150   10.8200 hc        1 78M      0.041700
     45 H102       13.1760    0.5710   10.1440 hc        1 78M      0.041700
     46 H111       11.4820    1.9970   11.3440 hc        1 78M      0.039700
     47 H112       10.7090    0.5120   12.0190 hc        1 78M      0.039700
     48 H121       12.8800   -0.1090   13.1360 hc        1 78M      0.039700
     49 H122       13.6510    1.3780   12.4620 hc        1 78M      0.039700
     50 H131       11.9560    2.8020   13.6620 hc        1 78M      0.039700
     51 H132       11.1850    1.3160   14.3370 hc        1 78M      0.039700
     52 H151       11.6830    2.1190   16.6840 hc        1 78M      0.032700
     53 H152       12.4540    3.6100   16.0080 hc        1 78M      0.032700
     54 H153       13.3870    2.5400   17.1330 hc        1 78M      0.032700
     55 H141       13.3560    0.6970   15.4520 hc        1 78M      0.038700
     56 H142       14.1260    2.1840   14.7770 hc        1 78M      0.038700
@<TRIPOS>BOND
     1    1    2 1   
     2    1   23 1   
     3    2    3 1   
     4    2   24 1   
     5    2   25 1   
     6    3    4 1   
     7    3    5 1   
     8    3   26 1   
     9    4   27 1   
    10    5    6 1   
    11    5   28 1   
    12    5   29 1   
    13    6    7 1   
    14    7    8 2   
    15    7    9 1   
    16    9   10 1   
    17    9   30 1   
    18    9   31 1   
    19   10   11 1   
    20   10   32 1   
    21   10   33 1   
    22   11   12 1   
    23   11   34 1   
    24   11   35 1   
    25   12   13 1   
    26   12   36 1   
    27   12   37 1   
    28   13   14 1   
    29   13   38 1   
    30   13   39 1   
    31   14   15 2   
    32   14   40 1   
    33   15   16 1   
    34   15   41 1   
    35   16   17 1   
    36   16   42 1   
    37   16   43 1   
    38   17   18 1   
    39   17   44 1   
    40   17   45 1   
    41   18   19 1   
    42   18   46 1   
    43   18   47 1   
    44   19   20 1   
    45   19   48 1   
    46   19   49 1   
    47   20   22 1   
    48   20   50 1   
    49   20   51 1   
    50   21   22 1   
    51   21   52 1   
    52   21   53 1   
    53   21   54 1   
    54   22   55 1   
    55   22   56 1   
@<TRIPOS>SUBSTRUCTURE
     1 78M         1 TEMP              0 ****  ****    0 ROOT
