@<TRIPOS>MOLECULE
molecule
   56    55     1     0     0
SMALL
bcc


@<TRIPOS>ATOM
      1 O21          0.0000     0.0000     0.0000 oh         1 78M      -0.605800
      2 C20          1.4290     0.0000     0.0000 c3         1 78M       0.131400
      3 C18          1.9390     0.0000     1.4420 c3         1 78M       0.149100
      4 O19          1.5610     1.2210     2.0810 oh         1 78M      -0.591800
      5 C17          3.4640    -0.1270     1.4440 c3         1 78M       0.136400
      6 O2           3.9380    -0.2460     2.8110 os         1 78M      -0.427900
      7 C1           5.2640    -0.3650     2.9880 c          1 78M       0.632100
      8 O1           6.0030    -0.3700     2.0320 o          1 78M      -0.548000
      9 C2           5.8290    -0.4930     4.3780 c3         1 78M      -0.126400
     10 C3           7.3520    -0.6140     4.3010 c3         1 78M      -0.070400
     11 C4           7.9270    -0.7440     5.7130 c3         1 78M      -0.089400
     12 C5           9.4500    -0.8660     5.6350 c3         1 78M      -0.033400
     13 C6          10.0240    -0.9960     7.0470 c3         1 78M      -0.152200
     14 C7          11.5240    -1.1150     6.9700 c2         1 78M      -0.332200
     15 C8          12.2820    -0.3170     7.6790 c2         1 78M      -0.346200
     16 C9          11.6610     0.6050     8.6970 c3         1 78M      -0.142200
     17 C10         12.3340     0.3940    10.0540 c3         1 78M      -0.034400
     18 C11         11.7030     1.3290    11.0880 c3         1 78M      -0.087400
     19 C12         12.3760     1.1170    12.4450 c3         1 78M      -0.080400
     20 C13         11.7450     2.0520    13.4790 c3         1 78M      -0.081400
     21 C15         11.7870     2.7770    15.8700 c3         1 78M      -0.092100
     22 C14         12.4170     1.8410    14.8370 c3         1 78M      -0.084400
     23 H21         -0.3140    -0.0830    -0.8850 ho         1 78M       0.407000
     24 H201         1.7900     0.8840    -0.5110 h1         1 78M       0.032700
     25 H202         1.7900    -0.8850    -0.5110 h1         1 78M       0.032700
     26 H18          1.5070    -0.8370     1.9770 h1         1 78M       0.053700
     27 H19          1.0100     1.0300     2.8220 ho         1 78M       0.412000
     28 H171         3.9000     0.7530     0.9860 h1         1 78M       0.059700
     29 H172         3.7540    -1.0070     0.8830 h1         1 78M       0.059700
     30 H21C         5.4200    -1.3760     4.8540 hc         1 78M       0.071700
     31 H22C         5.5660     0.3840     4.9580 hc         1 78M       0.071700
     32 H31C         7.6150    -1.4910     3.7220 hc         1 78M       0.062200
     33 H32C         7.7600     0.2690     3.8240 hc         1 78M       0.062200
     34 H41C         7.6640     0.1330     6.2920 hc         1 78M       0.040200
     35 H42C         7.5180    -1.6270     6.1900 hc         1 78M       0.040200
     36 H51C         9.8590     0.0170     5.1590 hc         1 78M       0.061200
     37 H52C         9.7130    -1.7430     5.0560 hc         1 78M       0.061200
     38 H61C         9.6150    -1.8790     7.5230 hc         1 78M       0.033700
     39 H62C         9.7610    -0.1190     7.6260 hc         1 78M       0.033700
     40 H7          10.9660    -1.6040     7.7590 ha         1 78M       0.330000
     41 H8          11.8780     0.6450     7.3870 ha         1 78M       0.331000
     42 H91C        10.6020     0.3890     8.7820 hc         1 78M       0.033700
     43 H92C        11.7950     1.6330     8.3840 hc         1 78M       0.033700
     44 H101        13.3920     0.6100     9.9700 hc         1 78M       0.058700
     45 H102        12.1990    -0.6340    10.3680 hc         1 78M       0.058700
     46 H111        10.6450     1.1130    11.1720 hc         1 78M       0.040700
     47 H112        11.8380     2.3570    10.7750 hc         1 78M       0.040700
     48 H121        13.4340     1.3320    12.3610 hc         1 78M       0.044700
     49 H122        12.2400     0.0890    12.7590 hc         1 78M       0.044700
     50 H131        11.8810     3.0800    13.1650 hc         1 78M       0.041200
     51 H132        10.6870     1.8370    13.5630 hc         1 78M       0.041200
     52 H151        12.2630     2.6270    16.8310 hc         1 78M       0.033367
     53 H152        11.9220     3.8050    15.5560 hc         1 78M       0.033367
     54 H153        10.7280     2.5610    15.9540 hc         1 78M       0.033367
     55 H141        12.2820     0.8130    15.1500 hc         1 78M       0.041200
     56 H142        13.4760     2.0560    14.7530 hc         1 78M       0.041200
@<TRIPOS>BOND
     1     1     2 1   
     2     2     3 1   
     3     3     4 1   
     4     3     5 1   
     5     5     6 1   
     6     6     7 1   
     7     7     8 2   
     8     7     9 1   
     9     9    10 1   
    10    10    11 1   
    11    11    12 1   
    12    12    13 1   
    13    13    14 1   
    14    14    15 2   
    15    15    16 1   
    16    16    17 1   
    17    17    18 1   
    18    18    19 1   
    19    19    20 1   
    20    21    22 1   
    21    20    22 1   
    22     1    23 1   
    23     2    24 1   
    24     2    25 1   
    25     3    26 1   
    26     4    27 1   
    27     5    28 1   
    28     5    29 1   
    29     9    30 1   
    30     9    31 1   
    31    10    32 1   
    32    10    33 1   
    33    11    34 1   
    34    11    35 1   
    35    12    36 1   
    36    12    37 1   
    37    13    38 1   
    38    13    39 1   
    39    14    40 1   
    40    15    41 1   
    41    16    42 1   
    42    16    43 1   
    43    17    44 1   
    44    17    45 1   
    45    18    46 1   
    46    18    47 1   
    47    19    48 1   
    48    19    49 1   
    49    20    50 1   
    50    20    51 1   
    51    21    52 1   
    52    21    53 1   
    53    21    54 1   
    54    22    55 1   
    55    22    56 1   
@<TRIPOS>SUBSTRUCTURE
     1 78M         1 TEMP              0 ****  ****    0 ROOT
