@<TRIPOS>MOLECULE
molecule
   56    55     1     0     0
SMALL
bcc


@<TRIPOS>ATOM
      1 O22          0.0000     0.0000     0.0000 oh         1 78N      -0.605800
      2 C19          1.4290     0.0000     0.0000 c3         1 78N       0.131400
      3 C18          1.9390     0.0000     1.4430 c3         1 78N       0.149100
      4 O20          1.5610    -1.2220     2.0810 oh         1 78N      -0.591800
      5 C17          3.4630     0.1260     1.4450 c3         1 78N       0.136400
      6 O16          3.9380     0.2440     2.8120 os         1 78N      -0.427900
      7 C8           5.2630     0.3640     2.9890 c          1 78N       0.632100
      8 O15          6.0020     0.3710     2.0340 o          1 78N      -0.548000
      9 C7           5.8290     0.4910     4.3810 c3         1 78N      -0.125400
     10 C6           7.3520     0.6130     4.3030 c3         1 78N      -0.070400
     11 C5           7.9260     0.7420     5.7150 c3         1 78N      -0.089400
     12 C4           9.4490     0.8640     5.6370 c3         1 78N      -0.032400
     13 C3          10.0230     0.9930     7.0490 c3         1 78N      -0.151200
     14 C2          11.5230     1.1140     6.9730 c2         1 78N      -0.334200
     15 C1          12.1330     2.1020     7.5780 c2         1 78N      -0.345200
     16 C9          11.3600     3.0200     8.4890 c3         1 78N      -0.143200
     17 C10         12.0450     3.0790     9.8560 c3         1 78N      -0.034400
     18 C11         11.2590     4.0110    10.7810 c3         1 78N      -0.087400
     19 C12         11.9440     4.0700    12.1460 c3         1 78N      -0.080400
     20 C13         11.1590     5.0010    13.0710 c3         1 78N      -0.081400
     21 C15         11.0580     5.9930    15.3630 c3         1 78N      -0.092100
     22 C14         11.8440     5.0600    14.4390 c3         1 78N      -0.083400
     23 H22         -0.3140     0.0830    -0.8850 ho         1 78N       0.407000
     24 H191         1.7900     0.8850    -0.5110 h1         1 78N       0.032700
     25 H192         1.7900    -0.8850    -0.5110 h1         1 78N       0.032700
     26 H18          1.5060     0.8360     1.9790 h1         1 78N       0.052700
     27 H20          1.0100    -1.0320     2.8220 ho         1 78N       0.412000
     28 H171         3.7530     1.0070     0.8850 h1         1 78N       0.059700
     29 H172         3.8990    -0.7530     0.9850 h1         1 78N       0.059700
     30 H71          5.5660    -0.3870     4.9590 hc         1 78N       0.071700
     31 H72          5.4200     1.3730     4.8580 hc         1 78N       0.071700
     32 H61C         7.7610    -0.2690     3.8260 hc         1 78N       0.062700
     33 H62C         7.6150     1.4910     3.7250 hc         1 78N       0.062700
     34 H51C         7.6630    -0.1360     6.2930 hc         1 78N       0.040200
     35 H52C         7.5160     1.6240     6.1920 hc         1 78N       0.040200
     36 H41C         9.8580    -0.0180     5.1600 hc         1 78N       0.061200
     37 H42C         9.7110     1.7420     5.0590 hc         1 78N       0.061200
     38 H31C         9.7610     0.1150     7.6270 hc         1 78N       0.034200
     39 H32C         9.6140     1.8750     7.5270 hc         1 78N       0.034200
     40 H2          11.0440     0.6340     7.8180 ha         1 78N       0.331000
     41 H1          11.5800     2.9440     7.1820 ha         1 78N       0.330000
     42 H91C        10.3500     2.6450     8.6060 hc         1 78N       0.033700
     43 H92C        11.3280     4.0130     8.0580 hc         1 78N       0.033700
     44 H101        13.0540     3.4540     9.7380 hc         1 78N       0.058700
     45 H102        12.0770     2.0850    10.2870 hc         1 78N       0.058700
     46 H111        11.2260     5.0040    10.3500 hc         1 78N       0.040200
     47 H112        10.2500     3.6350    10.8990 hc         1 78N       0.040200
     48 H121        12.9530     4.4450    12.0280 hc         1 78N       0.045200
     49 H122        11.9770     3.0760    12.5770 hc         1 78N       0.045200
     50 H131        11.1260     5.9950    12.6410 hc         1 78N       0.040700
     51 H132        10.1490     4.6260    13.1890 hc         1 78N       0.040700
     52 H141        11.8750     4.0670    14.8700 hc         1 78N       0.041200
     53 H142        12.8530     5.4350    14.3210 hc         1 78N       0.041200
     54 H151        11.0260     6.9860    14.9320 hc         1 78N       0.033033
     55 H152        10.0490     5.6180    15.4810 hc         1 78N       0.033033
     56 H153        11.5430     6.0350    16.3310 hc         1 78N       0.033033
@<TRIPOS>BOND
     1     1     2 1   
     2     2     3 1   
     3     3     4 1   
     4     3     5 1   
     5     5     6 1   
     6     6     7 1   
     7     7     8 2   
     8     7     9 1   
     9     9    10 1   
    10    10    11 1   
    11    11    12 1   
    12    12    13 1   
    13    13    14 1   
    14    14    15 2   
    15    15    16 1   
    16    16    17 1   
    17    17    18 1   
    18    18    19 1   
    19    19    20 1   
    20    20    22 1   
    21    21    22 1   
    22     1    23 1   
    23     2    24 1   
    24     2    25 1   
    25     3    26 1   
    26     4    27 1   
    27     5    28 1   
    28     5    29 1   
    29     9    30 1   
    30     9    31 1   
    31    10    32 1   
    32    10    33 1   
    33    11    34 1   
    34    11    35 1   
    35    12    36 1   
    36    12    37 1   
    37    13    38 1   
    38    13    39 1   
    39    14    40 1   
    40    15    41 1   
    41    16    42 1   
    42    16    43 1   
    43    17    44 1   
    44    17    45 1   
    45    18    46 1   
    46    18    47 1   
    47    19    48 1   
    48    19    49 1   
    49    20    50 1   
    50    20    51 1   
    51    22    52 1   
    52    22    53 1   
    53    21    54 1   
    54    21    55 1   
    55    21    56 1   
@<TRIPOS>SUBSTRUCTURE
     1 78N         1 TEMP              0 ****  ****    0 ROOT
