@<TRIPOS>MOLECULE
78N
   56    55     1     0     0
SMALL
bcc


@<TRIPOS>ATOM
      1 O22         0.4350    0.7430   -0.4340 oh        1 78N     -0.611800
      2 C19         1.7650    0.2530   -0.3590 c3        1 78N      0.092400
      3 C18         1.9790   -0.1640    1.1010 c3        1 78N      0.140100
      4 O20         1.0520   -1.1740    1.4680 oh        1 78N     -0.599800
      5 C17         3.3730   -0.7660    1.2820 c3        1 78N      0.138400
      6 O16         3.9310   -0.1190    2.4370 os        1 78N     -0.444900
      7 C8          5.1520   -0.5700    2.8620 c         1 78N      0.634100
      8 O15         5.7060   -1.4540    2.2060 o         1 78N     -0.541000
      9 C7          5.6110    0.1130    4.1120 c3        1 78N     -0.127400
     10 C6          7.1150    0.2910    4.1140 c3        1 78N     -0.079400
     11 C5          7.5860    0.8560    5.4370 c3        1 78N     -0.079400
     12 C4          9.0870    1.0530    5.4390 c3        1 78N     -0.077400
     13 C3          9.5600    1.6180    6.7630 c3        1 78N     -0.048200
     14 C2         11.0270    1.8240    6.7920 c2        1 78N     -0.176200
     15 C1         11.6770    2.3850    7.8180 c2        1 78N     -0.171200
     16 C9         11.0100    2.8740    9.0470 c3        1 78N     -0.049200
     17 C10        11.9990    3.3890   10.0720 c3        1 78N     -0.077400
     18 C11        11.2900    3.8810   11.3160 c3        1 78N     -0.079400
     19 C12        12.2760    4.3960   12.3420 c3        1 78N     -0.079400
     20 C13        11.5680    4.8900   13.5850 c3        1 78N     -0.079400
     21 C15        11.8530    5.8980   15.8530 c3        1 78N     -0.092100
     22 C14        12.5530    5.4040   14.6130 c3        1 78N     -0.080400
     23 H22         0.2570    0.9230   -1.3640 ho        1 78N      0.410000
     24 H191        1.8940   -0.6290   -1.0400 h1        1 78N      0.037700
     25 H192        2.4900    1.0600   -0.6420 h1        1 78N      0.037700
     26 H18         1.8430    0.7320    1.7720 h1        1 78N      0.069700
     27 H20         0.1710   -0.8180    1.2880 ho        1 78N      0.421000
     28 H171        3.3170   -1.8720    1.4660 h1        1 78N      0.068200
     29 H172        4.0350   -0.5600    0.4030 h1        1 78N      0.068200
     30 H71         5.0950    1.1040    4.2110 hc        1 78N      0.079200
     31 H72         5.2920   -0.5280    4.9780 hc        1 78N      0.079200
     32 H61C        7.4130    0.9780    3.2800 hc        1 78N      0.057700
     33 H62C        7.6090   -0.6990    3.9200 hc        1 78N      0.057700
     34 H51C        7.0770    1.8370    5.6310 hc        1 78N      0.041200
     35 H52C        7.2960    0.1620    6.2690 hc        1 78N      0.041200
     36 H41C        9.5950    0.0720    5.2440 hc        1 78N      0.044700
     37 H42C        9.3770    1.7480    4.6080 hc        1 78N      0.044700
     38 H31C        9.2660    0.9210    7.5960 hc        1 78N      0.047700
     39 H32C        9.0400    2.5950    6.9630 hc        1 78N      0.047700
     40 H2         11.5810    1.4800    5.9030 ha        1 78N      0.123000
     41 H1         12.7720    2.5080    7.7810 ha        1 78N      0.123000
     42 H91C       10.2880    3.6950    8.7770 hc        1 78N      0.047700
     43 H92C       10.3980    2.0440    9.4970 hc        1 78N      0.047700
     44 H101       12.6030    4.2230    9.6280 hc        1 78N      0.041700
     45 H102       12.7160    2.5700   10.3470 hc        1 78N      0.041700
     46 H111       10.6860    3.0470   11.7600 hc        1 78N      0.039700
     47 H112       10.5720    4.6990   11.0410 hc        1 78N      0.039700
     48 H121       12.9940    3.5780   12.6170 hc        1 78N      0.039700
     49 H122       12.8810    5.2300   11.8980 hc        1 78N      0.039700
     50 H131       10.8510    5.7070   13.3100 hc        1 78N      0.039700
     51 H132       10.9630    4.0560   14.0300 hc        1 78N      0.039700
     52 H141       13.1590    6.2370   14.1660 hc        1 78N      0.038700
     53 H142       13.2710    4.5860   14.8860 hc        1 78N      0.038700
     54 H151       12.5970    6.2720   16.5960 hc        1 78N      0.032700
     55 H152       11.1520    6.7310   15.6040 hc        1 78N      0.032700
     56 H153       11.2640    5.0750   16.3260 hc        1 78N      0.032700
@<TRIPOS>BOND
     1    1    2 1   
     2    1   23 1   
     3    2    3 1   
     4    2   24 1   
     5    2   25 1   
     6    3    4 1   
     7    3    5 1   
     8    3   26 1   
     9    4   27 1   
    10    5    6 1   
    11    5   28 1   
    12    5   29 1   
    13    6    7 1   
    14    7    8 2   
    15    7    9 1   
    16    9   10 1   
    17    9   30 1   
    18    9   31 1   
    19   10   11 1   
    20   10   32 1   
    21   10   33 1   
    22   11   12 1   
    23   11   34 1   
    24   11   35 1   
    25   12   13 1   
    26   12   36 1   
    27   12   37 1   
    28   13   14 1   
    29   13   38 1   
    30   13   39 1   
    31   14   15 2   
    32   14   40 1   
    33   15   16 1   
    34   15   41 1   
    35   16   17 1   
    36   16   42 1   
    37   16   43 1   
    38   17   18 1   
    39   17   44 1   
    40   17   45 1   
    41   18   19 1   
    42   18   46 1   
    43   18   47 1   
    44   19   20 1   
    45   19   48 1   
    46   19   49 1   
    47   20   22 1   
    48   20   50 1   
    49   20   51 1   
    50   21   22 1   
    51   21   54 1   
    52   21   55 1   
    53   21   56 1   
    54   22   52 1   
    55   22   53 1   
@<TRIPOS>SUBSTRUCTURE
     1 78N         1 TEMP              0 ****  ****    0 ROOT
