@<TRIPOS>MOLECULE
molecule
   60    61     1     0     0
SMALL
bcc


@<TRIPOS>ATOM
      1 N1           0.0000     0.0000     0.0000 n7         1 78O      -0.606000
      2 N2           1.4540     0.0000     0.0000 n7         1 78O      -0.589000
      3 C5           1.4930    -1.2510     2.1040 c3         1 78O      -0.070400
      4 C6          -0.0390    -1.2720     2.0920 c3         1 78O      -0.079400
      5 C7          -0.5290    -1.2110     0.6430 c3         1 78O       0.155800
      6 C8           1.9830     0.0000     1.3710 c3         1 78O       0.127500
      7 C23         12.4940    10.3530     2.8380 c          1 78O       0.901600
      8 C24         11.2790     9.5400     3.2030 c3         1 78O      -0.176700
      9 C25         10.9100     9.8030     4.6640 c3         1 78O      -0.071100
     10 C26         11.5850     8.0530     3.0130 c3         1 78O       0.167100
     11 C27         10.3500     7.2280     3.3840 c3         1 78O      -0.108400
     12 C28         10.6940     5.7380     3.3150 c3         1 78O      -0.059200
     13 C29          3.4900     0.0000     1.3280 c          1 78O       0.630100
     14 C30          5.6390     0.3720     2.2880 c3         1 78O       0.197400
     15 C31          6.2300     1.4510     3.1580 ca         1 78O      -0.097300
     16 C32          7.3050     2.1880     2.7050 ca         1 78O      -0.114000
     17 C33          7.8520     3.1870     3.5120 ca         1 78O      -0.033800
     18 C34          7.3060     3.4330     4.7720 ca         1 78O      -0.123000
     19 C35          6.2320     2.6890     5.2130 ca         1 78O      -0.131000
     20 C36          5.6910     1.7030     4.4060 ca         1 78O      -0.116000
     21 C37          9.0030     3.9810     3.0330 ce         1 78O      -0.159200
     22 C38          9.5200     4.9280     3.8030 c2         1 78O      -0.127200
     23 C40          6.1620    -0.9930     2.7410 c3         1 78O      -0.109100
     24 O45          4.0660    -0.3580     0.3280 o          1 78O      -0.534000
     25 O46         11.9290     7.8080     1.6480 os         1 78O      -0.401600
     26 O47          4.1920     0.3980     2.4000 os         1 78O      -0.423900
     27 H1           1.7870     0.8080    -0.4870 hn         1 78O       0.374800
     28 H4           1.8460    -1.2310     3.1280 hc         1 78O       0.057700
     29 H5           1.8700    -2.1340     1.6030 hc         1 78O       0.057700
     30 H6          -0.4160    -0.4160     2.6370 hc         1 78O       0.049200
     31 H7          -0.3910    -2.1860     2.5540 hc         1 78O       0.049200
     32 H8          -1.6120    -1.1810     0.6300 h1         1 78O       0.040700
     33 H9          -0.1790    -2.0850     0.1070 h1         1 78O       0.040700
     34 H10          1.6310     0.8820     1.8920 h1         1 78O       0.059700
     35 H23         10.4510     9.8230     2.5650 hc         1 78O       0.052700
     36 H25         11.0620    10.8510     4.8920 hc         1 78O       0.021700
     37 H26         11.5370     9.1990     5.3090 hc         1 78O       0.021700
     38 H27         12.4130     7.7710     3.6510 h1         1 78O       0.043700
     39 H28          9.5480     7.4460     2.6890 hc         1 78O       0.045700
     40 H29         10.0360     7.4800     4.3890 hc         1 78O       0.045700
     41 H30         10.9190     5.4660     2.2910 hc         1 78O       0.051200
     42 H31         11.5550     5.5370     3.9400 hc         1 78O       0.051200
     43 H32          5.9240     0.5430     1.2560 h1         1 78O       0.077700
     44 H33          7.7240     1.9920     1.7260 ha         1 78O       0.134000
     45 H34          7.7270     4.2050     5.4040 ha         1 78O       0.138000
     46 H35          5.8060     2.8810     6.1910 ha         1 78O       0.126000
     47 H36          4.8470     1.1220     4.7560 ha         1 78O       0.132000
     48 H37          9.4250     3.7880     2.0540 ha         1 78O       0.134000
     49 H38          9.0980     5.1210     4.7820 ha         1 78O       0.121000
     50 H39         12.6320     6.0020     0.9450 h1         1 78O       0.015367
     51 H40         13.3720     6.5710     2.4480 h1         1 78O       0.015367
     52 H41         13.7950     7.3350     0.9090 h1         1 78O       0.015367
     53 H42          7.2110    -0.9110     2.9970 hc         1 78O       0.048367
     54 H43          6.0400    -1.7110     1.9390 hc         1 78O       0.048367
     55 H44          5.6030    -1.3230     3.6090 hc         1 78O       0.048367
     56 OXT         12.4580    11.6920     2.9280 o          1 78O      -0.850800
     57 H2          -0.3340     0.0500    -0.9420 hn         1 78O       0.366800
     58 O44         13.5020     9.8000     2.4650 o          1 78O      -0.850800
     59 C39         12.9960     6.8720     1.4770 c3         1 78O       0.143700
     60 H24          9.8710     9.5440     4.8260 hc         1 78O       0.021700
@<TRIPOS>BOND
     1    59    25 1
     2    25    10 1
     3    10    11 1
     4    10     8 1
     5     9     8 1
     6    11    12 1
     7    18    19 ar
     8    18    17 ar
     9     8     7 1
    10    19    20 ar
    11    21    17 1
    12    21    22 2
    13    12    22 1
    14     7    58 1
    15    17    16 ar
    16    20    15 ar
    17    24    13 2
    18    16    15 ar
    19     2     1 1
    20     2     6 1
    21    15    14 1
    22     1     5 1
    23     5     4 1
    24    13     6 1
    25    13    26 1
    26     6     3 1
    27    14    26 1
    28    14    23 1
    29     3     4 1
    30     2    27 1
    31     3    28 1
    32     3    29 1
    33     4    30 1
    34     4    31 1
    35     5    32 1
    36     5    33 1
    37     6    34 1
    38     8    35 1
    39     9    60 1
    40     9    36 1
    41     9    37 1
    42    10    38 1
    43    11    39 1
    44    11    40 1
    45    12    41 1
    46    12    42 1
    47    14    43 1
    48    16    44 1
    49    18    45 1
    50    19    46 1
    51    20    47 1
    52    21    48 1
    53    22    49 1
    54    59    50 1
    55    59    51 1
    56    59    52 1
    57    23    53 1
    58    23    54 1
    59    23    55 1
    60     7    56 1
    61     1    57 1
@<TRIPOS>SUBSTRUCTURE
     1 78O         1 TEMP              0 ****  ****    0 ROOT
