@<TRIPOS>MOLECULE
78O
   60    63     1     0     0
SMALL
bcc


@<TRIPOS>ATOM
      1 N1           0.0000     0.0000     0.0000 n7         1 78O      -0.058000
      2 N2           1.4540     0.0000     0.0000 n7         1 78O      -0.031000
      3 C5           1.4930    -1.2510     2.1040 c3         1 78O      -0.096000
      4 C6          -0.0390    -1.2720     2.0920 c3         1 78O      -0.142000
      5 C7          -0.5290    -1.2110     0.6430 c3         1 78O      -0.080000
      6 C8           1.9830     0.0000     1.3710 c3         1 78O      -0.101000
      7 C23         12.4940    10.3530     2.8380 c2         1 78O       0.410000
      8 C24         11.2790     9.5400     3.2030 c3         1 78O      -0.156000
      9 C25         10.9100     9.8030     4.6640 c3         1 78O      -0.102000
     10 C26         11.5850     8.0530     3.0130 c3         1 78O       0.088000
     11 C27         10.3500     7.2280     3.3840 c3         1 78O      -0.188000
     12 C28         10.6940     5.7380     3.3150 DU         1 78O      -0.027000
     13 C29          3.4900     0.0000     1.3280 c2         1 78O       0.361000
     14 C30          5.6390     0.3720     2.2880 c3         1 78O       0.124000
     15 C31          6.2300     1.4510     3.1580 c2         1 78O      -0.062000
     16 C32          7.3050     2.1880     2.7050 c2         1 78O      -0.187000
     17 C33          7.8520     3.1870     3.5120 c3         1 78O       0.092000
     18 C34          7.3060     3.4330     4.7720 c2         1 78O      -0.187000
     19 C35          6.2320     2.6890     5.2130 c2         1 78O      -0.059000
     20 C36          5.6910     1.7030     4.4060 c2         1 78O      -0.156000
     21 C37          9.0030     3.9810     3.0330 c2         1 78O      -0.063000
     22 C38          9.5200     4.9280     3.8030 c2         1 78O      -0.162000
     23 C40          6.1620    -0.9930     2.7410 c3         1 78O      -0.141000
     24 O45          4.0660    -0.3580     0.3280 o          1 78O      -0.373000
     25 O46         11.9290     7.8080     1.6480 os         1 78O      -0.243000
     26 O47          4.1920     0.3980     2.4000 os         1 78O      -0.244000
     27 H1           1.7870     0.8080    -0.4870 hn         1 78O       0.074000
     28 H4           1.8460    -1.2310     3.1280 hc         1 78O       0.071000
     29 H5           1.8700    -2.1340     1.6030 hc         1 78O       0.071000
     30 H6          -0.3910    -2.1860     2.5540 hc         1 78O       0.058000
     31 H7          -0.4160    -0.4160     2.6370 hc         1 78O       0.058000
     32 H8          -0.1790    -2.0850     0.1070 h1         1 78O       0.068500
     33 H9          -1.6120    -1.1810     0.6300 h1         1 78O       0.068500
     34 H10          1.6310     0.8820     1.8920 h1         1 78O       0.060000
     35 H23         10.4510     9.8230     2.5650 hc         1 78O       0.069000
     36 H25          9.8760     9.5260     4.8310 hc         1 78O       0.034000
     37 H26         11.0440    10.8540     4.8870 hc         1 78O       0.034000
     38 H27         12.4130     7.7710     3.6510 h1         1 78O       0.067000
     39 H28         10.0360     7.4800     4.3890 hc         1 78O       0.071000
     40 H29          9.5480     7.4460     2.6890 hc         1 78O       0.071000
     41 H30         10.9190     5.4660     2.2910 ha         1 78O       0.074000
     42 H31         11.5550     5.5370     3.9400 ha         1 78O       0.074000
     43 H32          5.9240     0.5430     1.2560 h1         1 78O       0.083000
     44 H33          7.7240     1.9920     1.7260 ha         1 78O       0.120000
     45 H34          7.7270     4.2050     5.4040 ha         1 78O       0.124000
     46 H35          5.8060     2.8810     6.1910 ha         1 78O       0.097000
     47 H36          4.8470     1.1220     4.7560 ha         1 78O       0.108000
     48 H37          7.9780     4.3310     3.0370 DU         1 78O       0.035000
     49 H38          9.4470     5.7470     3.0960 DU         1 78O       0.107000
     50 H39         13.8190     7.3530     0.9620 h1         1 78O       0.020333
     51 H40         12.6480     6.0300     0.8920 h1         1 78O       0.020333
     52 H41         13.3310     6.5250     2.4470 h1         1 78O       0.020333
     53 H42          5.5890    -1.3330     3.5950 hc         1 78O       0.054667
     54 H43          6.0610    -1.7060     1.9320 hc         1 78O       0.054667
     55 H44          7.2050    -0.9060     3.0180 hc         1 78O       0.054667
     56 OXT         12.4580    11.6920     2.9280 o          1 78O      -0.631500
     57 H2          -0.3340     0.8090     0.4860 hn         1 78O       0.031000
     58 O44         13.5020     9.8000     2.4650 o          1 78O      -0.631500
     59 C39         12.9960     6.8720     1.4770 c3         1 78O       0.057000
     60 H24         11.5500     9.2130     5.3100 hc         1 78O       0.034000
@<TRIPOS>BOND
     1     1     2 1   
     2     1     5 1   
     3     1    57 1   
     4     2     6 1   
     5     2    27 1   
     6     3     4 1   
     7     3     6 1   
     8     3    28 1   
     9     3    29 1   
    10     4     5 1   
    11     4    30 1   
    12     4    31 1   
    13     5    32 1   
    14     5    33 1   
    15     6    13 1   
    16     6    34 1   
    17     7     8 1   
    18     7    56 1   
    19     7    58 1   
    20     8     9 1   
    21     8    10 1   
    22     8    35 1   
    23     9    36 1   
    24     9    37 1   
    25     9    60 1   
    26    10    11 1   
    27    10    25 1   
    28    10    38 1   
    29    11    12 1   
    30    11    39 1   
    31    11    40 1   
    32    12    22 1   
    33    12    41 1   
    34    12    42 1   
    35    12    49 1   
    36    13    24 1   
    37    13    26 1   
    38    14    15 1   
    39    14    23 1   
    40    14    26 1   
    41    14    43 1   
    42    15    16 1   
    43    15    20 1   
    44    16    17 1   
    45    16    44 1   
    46    17    18 1   
    47    17    21 1   
    48    17    48 1   
    49    18    19 1   
    50    18    45 1   
    51    19    20 1   
    52    19    46 1   
    53    20    47 1   
    54    21    22 1   
    55    21    48 1   
    56    22    49 1   
    57    23    53 1   
    58    23    54 1   
    59    23    55 1   
    60    25    59 1   
    61    50    59 1   
    62    51    59 1   
    63    52    59 1   
@<TRIPOS>SUBSTRUCTURE
     1 78O         1 TEMP              0 ****  ****    0 ROOT
