@<TRIPOS>MOLECULE
78P
   35    37     1     0     0
SMALL
bcc


@<TRIPOS>ATOM
      1 C4           0.0000     0.0000     0.0000 ca         1 78P      -0.204200
      2 C5           1.4020     0.0000     0.0000 ca         1 78P      -0.230600
      3 C6           2.0890     0.0000     1.2130 ca         1 78P      -0.042000
      4 C8          -2.1720    -0.0010    -0.3760 cc         1 78P       0.264800
      5 C10          2.1450     0.0010    -1.2750 c          1 78P       0.362700
      6 C13         -3.4990     0.0020    -1.0920 c3         1 78P       0.090900
      7 C15         -5.0110     1.6090    -1.9420 c3         1 78P       0.149800
      8 C17         -4.6460     0.1180    -0.0690 c3         1 78P      -0.038400
      9 C1           1.3930    -0.0010     2.4080 ca         1 78P      -0.129000
     10 C2           0.0140    -0.0010     2.4210 ca         1 78P       0.086000
     11 C3          -0.6980    -0.0010     1.2190 ca         1 78P       0.050400
     12 N7          -2.0220    -0.0010     0.9160 nd         1 78P      -0.475100
     13 N9          -0.9560     0.0070    -0.9880 na         1 78P       0.308700
     14 N11          3.4930     0.0010    -1.2690 nz         1 78P       0.203600
     15 O12          1.5410     0.0010    -2.3310 o          1 78P      -0.488100
     16 N14         -3.5900     1.1810    -1.9800 n7         1 78P      -0.590200
     17 C16         -5.4020     1.4100    -0.4560 c3         1 78P      -0.022400
     18 C18         -3.6580    -1.2810    -1.9090 c3         1 78P      -0.023100
     19 H6           3.1720    -0.0000     1.2190 ha         1 78P       0.078000
     20 H151        -5.6160     0.9780    -2.5820 h1         1 78P       0.020200
     21 H152        -5.1030     2.6510    -2.2240 h1         1 78P       0.020200
     22 H171        -4.2460     0.2040     0.9340 hc         1 78P       0.045200
     23 H172        -5.3040    -0.7380    -0.1470 hc         1 78P       0.045200
     24 H1           1.9370    -0.0010     3.3450 ha         1 78P       0.131000
     25 H2          -0.5190    -0.0020     3.3650 ha         1 78P       0.130000
     26 H9          -0.7900    -0.1050    -1.9680 hn         1 78P       0.152700
     27 H111         3.8240     0.8180    -0.7950 hn         1 78P       0.245467
     28 H112         3.8240    -0.8160    -0.7970 hn         1 78P       0.245467
     29 H141        -3.3460     0.9150    -2.9140 hn         1 78P       0.256800
     30 H161        -6.4710     1.2700    -0.3570 hc         1 78P       0.030200
     31 H162        -5.0600     2.2460     0.1440 hc         1 78P       0.030200
     32 H181        -3.4170    -2.1360    -1.2890 hc         1 78P       0.018033
     33 H182        -2.9890    -1.2520    -2.7600 hc         1 78P       0.018033
     34 H183        -4.6810    -1.3630    -2.2560 hc         1 78P       0.018033
     35 H113         3.8300     0.0150    -2.2110 hn         1 78P       0.245467
@<TRIPOS>BOND
     1     1     2 ar  
     2     1    11 ar  
     3     1    13 1   
     4     2     3 ar  
     5     2     5 1   
     6     3     9 ar  
     7     3    19 1   
     8     4     6 1   
     9     4    12 2   
    10     4    13 1   
    11     5    14 1   
    12     5    15 2   
    13     6     8 1   
    14     6    16 1   
    15     6    18 1   
    16     7    16 1   
    17     7    17 1   
    18     7    20 1   
    19     7    21 1   
    20     8    17 1   
    21     8    22 1   
    22     8    23 1   
    23     9    10 ar  
    24     9    24 1   
    25    10    11 ar  
    26    10    25 1   
    27    11    12 1   
    28    13    26 1   
    29    14    27 1   
    30    14    28 1   
    31    14    35 1   
    32    16    29 1   
    33    17    30 1   
    34    17    31 1   
    35    18    32 1   
    36    18    33 1   
    37    18    34 1   
@<TRIPOS>SUBSTRUCTURE
     1 78P         1 TEMP              0 ****  ****    0 ROOT
