@<TRIPOS>MOLECULE
78Q
   57    60     1     0     0
SMALL
bcc


@<TRIPOS>ATOM
      1 N2           0.0000     0.0000     0.0000 n7         1 78Q      -0.062000
      2 N1           1.4540     0.0000     0.0000 n7         1 78Q      -0.085000
      3 C5          -0.0370    -1.2730     2.0910 c3         1 78Q      -0.098000
      4 C7           1.9830     0.0000     1.3700 c3         1 78Q      -0.080000
      5 C8          -0.5290    -1.2110     0.6420 c3         1 78Q      -0.060000
      6 C6           1.4940    -1.2510     2.1040 c3         1 78Q      -0.104000
      7 C23         -6.2550   -13.1320    -4.0430 c2         1 78Q       0.410000
      8 C24         -5.8600   -12.2170    -2.9130 c3         1 78Q      -0.156000
      9 C25         -6.3860   -12.7810    -1.5920 c3         1 78Q      -0.101000
     10 C26         -6.4590   -10.8290    -3.1490 c3         1 78Q       0.080000
     11 C27         -6.0580    -9.8980    -2.0020 c3         1 78Q      -0.143000
     12 C28         -6.7430    -8.5430    -2.1810 DU         1 78Q      -0.106000
     13 C29         -2.0350    -1.1740     0.6230 c2         1 78Q       0.359000
     14 C30         -4.1840    -2.1970     0.7480 c3         1 78Q       0.130000
     15 C31         -4.7970    -3.5600     0.9360 c2         1 78Q      -0.098000
     16 C32         -5.0610    -4.3540    -0.1610 c2         1 78Q      -0.108000
     17 C33         -5.6270    -5.6160     0.0140 c3         1 78Q      -0.046000
     18 C34         -5.9250    -6.0680     1.3000 c2         1 78Q      -0.126000
     19 C35         -5.6560    -5.2650     2.3900 c2         1 78Q      -0.090000
     20 C36         -5.0880    -4.0170     2.2090 c2         1 78Q      -0.113000
     21 C37         -5.9130    -6.4720    -1.1580 c2         1 78Q      -0.127000
     22 C38         -6.4520    -7.6710    -0.9870 c2         1 78Q      -0.200000
     23 O44         -6.9440   -12.7170    -4.9450 o          1 78Q      -0.634500
     24 O45         -2.6110    -0.1230     0.4680 o          1 78Q      -0.386000
     25 O46         -5.9670   -10.3010    -4.3830 os         1 78Q      -0.244000
     26 O47         -2.7370    -2.3080     0.7770 os         1 78Q      -0.244000
     27 H1          -0.3340     0.0510    -0.9420 hn         1 78Q       0.069000
     28 H2          -0.4150    -0.4160     2.6370 hc         1 78Q       0.067000
     29 H3          -0.3890    -2.1870     2.5530 hc         1 78Q       0.067000
     30 H4           3.0660    -0.0020     1.3370 h1         1 78Q       0.049500
     31 H5           1.6340     0.8830     1.8910 h1         1 78Q       0.049500
     32 H9          -0.1770    -2.0850     0.1060 h1         1 78Q       0.074000
     33 H16          1.8720    -2.1350     1.6030 hc         1 78Q       0.059500
     34 H17          1.8470    -1.2300     3.1280 hc         1 78Q       0.059500
     35 H26         -4.7810   -12.1420    -2.8700 hc         1 78Q       0.070000
     36 H27         -5.8300   -12.3500    -0.7680 hc         1 78Q       0.033667
     37 H28         -7.4360   -12.5350    -1.4870 hc         1 78Q       0.033667
     38 H29         -6.2650   -13.8570    -1.5850 hc         1 78Q       0.033667
     39 H30         -7.5390   -10.9040    -3.1920 h1         1 78Q       0.061000
     40 H31         -6.3640   -10.3350    -1.0590 hc         1 78Q       0.067500
     41 H32         -4.9840    -9.7630    -2.0050 hc         1 78Q       0.067500
     42 H33         -7.8130    -8.6870    -2.2700 ha         1 78Q       0.071500
     43 H34         -6.3680    -8.0640    -3.0780 ha         1 78Q       0.071500
     44 H35         -4.4960    -1.7890    -0.2060 h1         1 78Q       0.051500
     45 H36         -4.5110    -1.5410     1.5460 h1         1 78Q       0.051500
     46 H37         -4.8270    -3.9980    -1.1570 ha         1 78Q       0.118000
     47 H38         -6.3680    -7.0470     1.4430 ha         1 78Q       0.128000
     48 H39         -5.8840    -5.6150     3.3890 ha         1 78Q       0.101000
     49 H40         -4.8790    -3.3900     3.0670 ha         1 78Q       0.101000
     50 H41         -5.0610    -6.5980    -0.5010 DU         1 78Q       0.155000
     51 H42         -7.3040    -7.5440    -1.6430 DU         1 78Q       0.179000
     52 H43         -7.0080   -10.1710    -6.1570 h1         1 78Q       0.018667
     53 H44         -6.7310    -8.6350    -5.3250 h1         1 78Q       0.018667
     54 H45         -7.9340    -9.7740    -4.7030 h1         1 78Q       0.018667
     55 H6           1.7880     0.8080    -0.4870 hn         1 78Q       0.062000
     56 OXT         -5.8410   -14.4090    -4.0480 o          1 78Q      -0.634500
     57 C39         -6.9710    -9.6830    -5.1910 c3         1 78Q       0.061000
@<TRIPOS>BOND
     1     1     2 1   
     2     1     5 1   
     3     1    27 1   
     4     2     4 1   
     5     2    55 1   
     6     3     5 1   
     7     3     6 1   
     8     3    28 1   
     9     3    29 1   
    10     4     6 1   
    11     4    30 1   
    12     4    31 1   
    13     5    13 1   
    14     5    32 1   
    15     6    33 1   
    16     6    34 1   
    17     7     8 1   
    18     7    23 1   
    19     7    56 1   
    20     8     9 1   
    21     8    10 1   
    22     8    35 1   
    23     9    36 1   
    24     9    37 1   
    25     9    38 1   
    26    10    11 1   
    27    10    25 1   
    28    10    39 1   
    29    11    12 1   
    30    11    40 1   
    31    11    41 1   
    32    12    22 1   
    33    12    42 1   
    34    12    43 1   
    35    12    51 1   
    36    13    24 1   
    37    13    26 1   
    38    14    15 1   
    39    14    26 1   
    40    14    44 1   
    41    14    45 1   
    42    15    16 1   
    43    15    20 1   
    44    16    17 1   
    45    16    46 1   
    46    17    18 1   
    47    17    21 1   
    48    17    50 1   
    49    18    19 1   
    50    18    47 1   
    51    19    20 1   
    52    19    48 1   
    53    20    49 1   
    54    21    22 1   
    55    21    50 1   
    56    22    51 1   
    57    25    57 1   
    58    52    57 1   
    59    53    57 1   
    60    54    57 1   
@<TRIPOS>SUBSTRUCTURE
     1 78Q         1 TEMP              0 ****  ****    0 ROOT
