@<TRIPOS>MOLECULE
molecule
   57    58     1     0     0
SMALL
bcc


@<TRIPOS>ATOM
      1 N2           0.0000     0.0000     0.0000 n7         1 78Q      -0.590000
      2 N1           1.4540     0.0000     0.0000 n7         1 78Q      -0.605000
      3 C5          -0.0370    -1.2730     2.0910 c3         1 78Q      -0.069400
      4 C7           1.9830     0.0000     1.3700 c3         1 78Q       0.155800
      5 C8          -0.5290    -1.2110     0.6420 c3         1 78Q       0.127500
      6 C6           1.4940    -1.2510     2.1040 c3         1 78Q      -0.079400
      7 C23         -6.2550   -13.1320    -4.0430 c          1 78Q       0.902600
      8 C24         -5.8600   -12.2170    -2.9130 c3         1 78Q      -0.178700
      9 C25         -6.3860   -12.7810    -1.5920 c3         1 78Q      -0.071100
     10 C26         -6.4590   -10.8290    -3.1490 c3         1 78Q       0.167100
     11 C27         -6.0580    -9.8980    -2.0020 c3         1 78Q      -0.105400
     12 C28         -6.7430    -8.5430    -2.1810 c3         1 78Q      -0.057200
     13 C29         -2.0350    -1.1740     0.6230 c          1 78Q       0.628100
     14 C30         -4.1840    -2.1970     0.7480 c3         1 78Q       0.199700
     15 C31         -4.7970    -3.5600     0.9360 ca         1 78Q      -0.102300
     16 C32         -5.0610    -4.3540    -0.1610 ca         1 78Q      -0.101000
     17 C33         -5.6270    -5.6160     0.0140 ca         1 78Q      -0.036800
     18 C34         -5.9250    -6.0680     1.3000 ca         1 78Q      -0.118000
     19 C35         -5.6560    -5.2650     2.3900 ca         1 78Q      -0.131000
     20 C36         -5.0880    -4.0170     2.2090 ca         1 78Q      -0.118000
     21 C37         -5.9130    -6.4720    -1.1580 ce         1 78Q      -0.159200
     22 C38         -6.4520    -7.6710    -0.9870 c2         1 78Q      -0.126200
     23 O44         -6.9440   -12.7170    -4.9450 o          1 78Q      -0.850800
     24 O45         -2.6110    -0.1230     0.4680 o          1 78Q      -0.538000
     25 O46         -5.9670   -10.3010    -4.3830 os         1 78Q      -0.406600
     26 O47         -2.7370    -2.3080     0.7770 os         1 78Q      -0.421900
     27 H1          -0.3340     0.0510    -0.9420 hn         1 78Q       0.372800
     28 H2          -0.3890    -2.1870     2.5530 hc         1 78Q       0.058700
     29 H3          -0.4150    -0.4160     2.6370 hc         1 78Q       0.058700
     30 H4           1.6340     0.8830     1.8910 h1         1 78Q       0.040200
     31 H5           3.0660    -0.0020     1.3370 h1         1 78Q       0.040200
     32 H9          -0.1770    -2.0850     0.1060 h1         1 78Q       0.061700
     33 H16          1.8720    -2.1350     1.6030 hc         1 78Q       0.050700
     34 H17          1.8470    -1.2300     3.1280 hc         1 78Q       0.050700
     35 H26         -4.7810   -12.1420    -2.8700 hc         1 78Q       0.052700
     36 H27         -6.2750   -13.8580    -1.5900 hc         1 78Q       0.021700
     37 H28         -5.8230   -12.3580    -0.7690 hc         1 78Q       0.021700
     38 H29         -7.4330   -12.5260    -1.4820 hc         1 78Q       0.021700
     39 H30         -7.5390   -10.9040    -3.1920 h1         1 78Q       0.043700
     40 H31         -6.3640   -10.3350    -1.0590 hc         1 78Q       0.045700
     41 H32         -4.9840    -9.7630    -2.0050 hc         1 78Q       0.045700
     42 H33         -6.3680    -8.0640    -3.0780 hc         1 78Q       0.051700
     43 H34         -7.8130    -8.6870    -2.2700 hc         1 78Q       0.051700
     44 H35         -4.4960    -1.7890    -0.2060 h1         1 78Q       0.053200
     45 H36         -4.5110    -1.5410     1.5460 h1         1 78Q       0.053200
     46 H37         -4.8270    -3.9980    -1.1570 ha         1 78Q       0.135000
     47 H38         -6.3680    -7.0470     1.4430 ha         1 78Q       0.139000
     48 H39         -5.8840    -5.6150     3.3890 ha         1 78Q       0.127000
     49 H40         -4.8790    -3.3900     3.0670 ha         1 78Q       0.125000
     50 H41         -5.6820    -6.1190    -2.1550 ha         1 78Q       0.134000
     51 H42         -6.6830    -8.0240     0.0110 ha         1 78Q       0.120000
     52 H43         -6.6930    -8.6540    -5.3870 h1         1 78Q       0.016367
     53 H44         -7.0590   -10.2180    -6.1290 h1         1 78Q       0.016367
     54 H45         -7.9200    -9.7080    -4.6700 h1         1 78Q       0.016367
     55 H6           1.7880     0.8080    -0.4870 hn         1 78Q       0.365800
     56 OXT         -5.8410   -14.4090    -4.0480 o          1 78Q      -0.850800
     57 C39         -6.9710    -9.6830    -5.1910 c3         1 78Q       0.145700
@<TRIPOS>BOND
     1     6     4 1
     2     6     3 1
     3     4     2 1
     4     2     1 1
     5     3     5 1
     6     5     1 1
     7     5    13 1
     8    23     7 1
     9    13    26 1
    10    13    24 2
    11     7     8 1
    12    26    14 1
    13     8     9 1
    14     8    10 1
    15    14    15 1
    16    16    15 ar
    17    16    17 ar
    18    11    10 1
    19    11    12 1
    20    15    20 ar
    21    10    25 1
    22    25    57 1
    23    21    17 1
    24    21    22 2
    25    17    18 ar
    26    12    22 1
    27    20    19 ar
    28    18    19 ar
    29     1    27 1
    30     3    28 1
    31     3    29 1
    32     4    30 1
    33     4    31 1
    34     5    32 1
    35     6    33 1
    36     6    34 1
    37     8    35 1
    38     9    36 1
    39     9    37 1
    40     9    38 1
    41    10    39 1
    42    11    40 1
    43    11    41 1
    44    12    42 1
    45    12    43 1
    46    14    44 1
    47    14    45 1
    48    16    46 1
    49    18    47 1
    50    19    48 1
    51    20    49 1
    52    21    50 1
    53    22    51 1
    54    57    52 1
    55    57    53 1
    56    57    54 1
    57     2    55 1
    58     7    56 1
@<TRIPOS>SUBSTRUCTURE
     1 78Q         1 TEMP              0 ****  ****    0 ROOT
