@<TRIPOS>MOLECULE
molecule
   62    61     1     0     0
SMALL
bcc


@<TRIPOS>ATOM
      1 CAC          0.0000     0.0000     0.0000 c3         1 78S      -0.088900
      2 CAW          1.5070     0.0000     0.0000 c2         1 78S       0.013600
      3 CAD          2.2600     0.0000     1.3060 c3         1 78S      -0.088900
      4 CAJ          2.1620     0.0010    -1.1340 c2         1 78S      -0.538200
      5 CAM          1.4100     0.0020    -2.4390 c3         1 78S      -0.093200
      6 CAP          1.8710     1.1840    -3.2930 c3         1 78S      -0.056200
      7 CAX          1.1180     1.1850    -4.5990 c2         1 78S      -0.164400
      8 CAE          1.6070     0.3470    -5.7520 c3         1 78S      -0.045900
      9 CAK          0.0380     1.9140    -4.7310 c2         1 78S      -0.142200
     10 CAN         -0.6470     2.0100    -6.0710 c3         1 78S      -0.054200
     11 CAQ         -2.1120     1.5910    -5.9260 c3         1 78S      -0.107200
     12 CAY         -2.7970     1.6860    -7.2640 c2         1 78S       0.025600
     13 CAF         -2.7400     0.5250    -8.2240 c3         1 78S      -0.052900
     14 CAL         -3.4420     2.7780    -7.5940 c2         1 78S      -0.445200
     15 CAO         -3.3870     3.9860    -6.6940 c3         1 78S       0.139600
     16 OAU         -3.1330     5.1530    -7.4790 os         1 78S      -0.351600
     17 CBA         -3.0620     6.3600    -6.7180 c3         1 78S       0.022100
     18 CAZ         -1.6390     6.5950    -6.2800 c          1 78S       0.880600
     19 OAI         -0.7600     5.8590    -6.6630 o          1 78S      -0.839800
     20 OAG         -1.3480     7.6220    -5.4650 o          1 78S      -0.839800
     21 CAR         -3.5310     7.5350    -7.5790 c3         1 78S       0.237400
     22 OAV         -2.6230     7.7190    -8.6670 os         1 78S      -0.560200
     23 PBB         -2.8080     8.8700    -9.7770 p5         1 78S       1.624500
     24 OAT         -1.6830     8.7020   -10.9180 os         1 78S      -0.590700
     25 CAB         -1.6440     9.5080   -12.0970 c3         1 78S       0.197700
     26 OAH         -4.1510     8.7550   -10.3890 o          1 78S      -0.815300
     27 OAS         -2.6580    10.3150    -9.0840 os         1 78S      -0.590700
     28 CAA         -1.4710    10.7330    -8.4060 c3         1 78S       0.197700
     29 H1          -0.3610    -0.0800     1.0180 hc         1 78S       0.047200
     30 H2          -0.3610    -0.8420    -0.5780 hc         1 78S       0.047200
     31 H3          -0.3610     0.9220    -0.4400 hc         1 78S       0.047200
     32 H4           2.8770    -0.8880     1.3670 hc         1 78S       0.047200
     33 H5           1.5550     0.0070     2.1290 hc         1 78S       0.047200
     34 H6           2.8880     0.8810     1.3600 hc         1 78S       0.047200
     35 H7           1.6940     0.8760    -1.5700 ha         1 78S       0.362000
     36 H8           0.3480     0.0900    -2.2440 hc         1 78S       0.059700
     37 H9           1.6040    -0.9230    -2.9680 hc         1 78S       0.059700
     38 H10          2.9330     1.0960    -3.4890 hc         1 78S       0.059700
     39 H11          1.6780     2.1100    -2.7640 hc         1 78S       0.059700
     40 H12          0.8400    -0.3650    -6.0320 hc         1 78S       0.039033
     41 H13          2.5030    -0.1860    -5.4560 hc         1 78S       0.039033
     42 H14          1.8310     0.9890    -6.5960 hc         1 78S       0.039033
     43 H15         -0.3130     2.5160    -3.9010 ha         1 78S       0.125000
     44 H16         -0.5980     3.0310    -6.4300 hc         1 78S       0.081200
     45 H17         -0.1530     1.3540    -6.7770 hc         1 78S       0.081200
     46 H18         -2.6070     2.2460    -5.2190 hc         1 78S       0.043700
     47 H19         -2.1620     0.5700    -5.5670 hc         1 78S       0.043700
     48 H20         -1.8890     0.6440    -8.8840 hc         1 78S       0.045700
     49 H21         -3.6510     0.4970    -8.8100 hc         1 78S       0.045700
     50 H22         -2.6400    -0.3990    -7.6680 hc         1 78S       0.045700
     51 H23         -4.0930     2.8770    -6.7340 ha         1 78S       0.305000
     52 H24         -2.5940     3.8590    -5.9670 h1         1 78S       0.004200
     53 H25         -4.3340     4.0960    -6.1800 h1         1 78S       0.004200
     54 H26         -3.6990     6.2750    -5.8460 h1         1 78S       0.029700
     55 H28         -4.5210     7.3260    -7.9670 h1         1 78S       0.034200
     56 H29         -3.5610     8.4350    -6.9770 h1         1 78S       0.034200
     57 H30         -2.1890    10.4280   -11.9250 h1         1 78S       0.033867
     58 H31         -0.6150     9.7390   -12.3430 h1         1 78S       0.033867
     59 H32         -2.0990     8.9670   -12.9190 h1         1 78S       0.033867
     60 H33         -1.6780    10.8400    -7.3480 h1         1 78S       0.033867
     61 H34         -0.6940     9.9910    -8.5480 h1         1 78S       0.033867
     62 H35         -1.1410    11.6830    -8.8070 h1         1 78S       0.033867
@<TRIPOS>BOND
     1    27    28 1   
     2    27    23 1   
     3    26    23 2   
     4    23    24 1   
     5    23    22 1   
     6    24    25 1   
     7    22    21 1   
     8    21    17 1   
     9    17    16 1   
    10    17    18 1   
    11    16    15 1   
    12    18    19 1   
    13    18    20 1   
    14    15    14 1   
    15     8     7 1   
    16    11    12 1   
    17    11    10 1   
    18    14    12 2   
    19    12    13 1   
    20    10     9 1   
    21     7     9 2   
    22     7     6 1   
    23     4     5 1   
    24     4     2 2   
    25     5     6 1   
    26     3     2 1   
    27     2     1 1   
    28     1    29 1   
    29     1    30 1   
    30     1    31 1   
    31     3    32 1   
    32     3    33 1   
    33     3    34 1   
    34     4    35 1   
    35     5    36 1   
    36     5    37 1   
    37     6    38 1   
    38     6    39 1   
    39     8    40 1   
    40     8    41 1   
    41     8    42 1   
    42     9    43 1   
    43    10    44 1   
    44    10    45 1   
    45    11    46 1   
    46    11    47 1   
    47    13    48 1   
    48    13    49 1   
    49    13    50 1   
    50    14    51 1   
    51    15    52 1   
    52    15    53 1   
    53    17    54 1   
    54    21    55 1   
    55    21    56 1   
    56    25    57 1   
    57    25    58 1   
    58    25    59 1   
    59    28    60 1   
    60    28    61 1   
    61    28    62 1   
@<TRIPOS>SUBSTRUCTURE
     1 78S         1 TEMP              0 ****  ****    0 ROOT
