@<TRIPOS>MOLECULE
molecule
    5     4     1     0     0
SMALL
bcc


@<TRIPOS>ATOM
      1 P1           0.0000     0.0000     0.0000 p5         1 78T       1.092900
      2 O1           1.5450     0.0000     0.0000 o          1 78T      -0.931833
      3 O2          -0.5150     0.0000     1.4560 o          1 78T      -0.931833
      4 O3          -0.5360     1.3130    -0.7600 o          1 78T      -0.931833
      5 H4          -0.4680    -1.1480    -0.6620 hp         1 78T      -0.296400
@<TRIPOS>BOND
     1     4     1 1
     2     1     3 1
     3     1     2 1
     4     1     5 1
@<TRIPOS>SUBSTRUCTURE
     1 78T         1 TEMP              0 ****  ****    0 ROOT
