@<TRIPOS>MOLECULE
molecule
   30    31     1     0     0
SMALL
bcc


@<TRIPOS>ATOM
      1 OXT          0.0000     0.0000     0.0000 o          1 78U      -0.780300
      2 C            1.3430     0.0000     0.0000 c          1 78U       0.870600
      3 O            1.9470    -0.0010    -1.0460 o          1 78U      -0.780300
      4 CA           2.0950     0.0000     1.3060 c3         1 78U      -0.012500
      5 N            3.4670    -0.4740     1.0800 nz         1 78U      -0.784600
      6 CB           2.1330     1.4200     1.8720 c3         1 78U       0.003500
      7 CAG          0.7040     1.9140     2.1080 c3         1 78U      -0.070100
      8 CG           2.8860     1.4210     3.1780 cc         1 78U      -0.206400
      9 CD2          4.1020     2.1770     3.4820 ca         1 78U      -0.113800
     10 CE3          4.9020     3.0610     2.7550 ca         1 78U      -0.089000
     11 CZ3          6.0050     3.6170     3.3410 ca         1 78U      -0.148000
     12 CH2          6.3360     3.3080     4.6540 ca         1 78U      -0.103000
     13 CZ2          5.5620     2.4380     5.3890 ca         1 78U      -0.140000
     14 CE2          4.4340     1.8620     4.8120 ca         1 78U      -0.040200
     15 NE1          3.4810     0.9790     5.2700 na         1 78U      -0.179400
     16 CD1          2.5650     0.7320     4.2840 cd         1 78U      -0.093100
     17 H2           1.5970    -0.6560     2.0100 hx         1 78U       0.097700
     18 H3           3.4460    -1.2930     0.5050 hn         1 78U       0.439133
     19 H4           3.8930    -0.6950     1.9590 hn         1 78U       0.439133
     20 H6           2.6300     2.0770     1.1690 hc         1 78U       0.070700
     21 H7           0.7020     2.6450     2.9070 hc         1 78U       0.056033
     22 H8           0.3260     2.3700     1.2000 hc         1 78U       0.056033
     23 H9           0.0730     1.0770     2.3810 hc         1 78U       0.056033
     24 H10          4.6490     3.3060     1.7310 ha         1 78U       0.133000
     25 H11          6.6250     4.3030     2.7770 ha         1 78U       0.136000
     26 H12          7.2130     3.7570     5.1050 ha         1 78U       0.136000
     27 H13          5.8290     2.2040     6.4120 ha         1 78U       0.131000
     28 H14          3.4590     0.5820     6.1880 hn         1 78U       0.302700
     29 H15          1.7050     0.0800     4.3840 h4         1 78U       0.175000
     30 HN3          4.0060     0.2550     0.6570 hn         1 78U       0.439133
@<TRIPOS>BOND
     1     3     2 1   
     2     2     1 1   
     3     2     4 1   
     4     4     6 1   
     5     4     5 1   
     6     6     7 1   
     7     6     8 1   
     8    16     8 2   
     9    16    15 1   
    10     8     9 1   
    11    15    14 1   
    12     9    14 ar  
    13     9    10 ar  
    14    14    13 ar  
    15    10    11 ar  
    16    13    12 ar  
    17    11    12 ar  
    18     4    17 1   
    19     5    18 1   
    20     5    19 1   
    21     6    20 1   
    22     7    21 1   
    23     7    22 1   
    24     7    23 1   
    25    10    24 1   
    26    11    25 1   
    27    12    26 1   
    28    13    27 1   
    29    15    28 1   
    30    16    29 1   
    31    30     5 1   
@<TRIPOS>SUBSTRUCTURE
     1 78U         1 TEMP              0 ****  ****    0 ROOT
