@<TRIPOS>MOLECULE
78V
   57    60     1     0     0
SMALL
bcc


@<TRIPOS>ATOM
      1 N            0.0000     0.0000     0.0000 n          1 78V       0.002000
      2 N1           2.0330     0.0000     1.1410 nc         1 78V      -0.678100
      3 C6           3.5900     0.0020     3.4410 c3         1 78V       0.156800
      4 C5           1.3450     0.0000     0.0000 c          1 78V       0.728900
      5 C4           1.4050    -0.0100     2.3100 cd         1 78V       0.586500
      6 N4           9.9780     2.7850     5.8860 na         1 78V       0.205000
      7 N3           5.6080     0.0130     4.8300 n7         1 78V      -0.562200
      8 C2          -0.6890     0.0010     1.1750 cc         1 78V      -0.062400
      9 O2           8.1620     1.2720     5.5410 os         1 78V      -0.380600
     10 C           -1.5690    -2.2390    -1.2730 c3         1 78V       0.236700
     11 O           -0.6700    -1.2960    -1.8590 os         1 78V      -0.384600
     12 O1           1.9470    -0.0020    -1.0620 o          1 78V      -0.671500
     13 C1          -0.7290     0.0050    -1.2710 c3         1 78V       0.261800
     14 C3          -0.0050    -0.0040     2.3430 cd         1 78V      -0.392600
     15 N2           2.1250    -0.0090     3.4810 nu         1 78V      -0.431200
     16 C7           4.1390     0.0010     4.8700 c3         1 78V       0.129800
     17 C8           6.1720     0.0120     6.1860 c3         1 78V       0.140800
     18 C9           7.6990     0.0250     6.1030 c3         1 78V       0.169100
     19 C12          8.3150    -0.0230     7.5190 c3         1 78V       0.129100
     20 O4           8.7030    -1.3580     7.8520 oh         1 78V      -0.549800
     21 C11          9.5530     0.8950     7.4210 c3         1 78V       0.123100
     22 O3          10.7460     0.1560     7.6920 oh         1 78V      -0.538800
     23 C10          9.5400     1.3890     5.9580 c3         1 78V       0.146800
     24 C15         11.2740     3.2270     5.8140 ca         1 78V       0.273800
     25 N6          12.4660     2.6390     5.7900 nb         1 78V      -0.677000
     26 C16         13.5680     3.3560     5.7160 ca         1 78V       0.690900
     27 N7          13.5510     4.6750     5.6610 nb         1 78V      -0.746000
     28 C17         12.4060     5.3510     5.6790 ca         1 78V       0.592200
     29 N8          12.3990     6.7340     5.6220 nv         1 78V      -0.482500
     30 C14         11.2040     4.6300     5.7580 ca         1 78V      -0.245200
     31 N5           9.8920     4.9640     5.7980 nc         1 78V      -0.498100
     32 C13          9.1700     3.8840     5.8730 cd         1 78V       0.251700
     33 H8           3.9440    -0.8770     2.9170 h1         1 78V       0.042200
     34 H9           3.9300     0.8920     2.9250 h1         1 78V       0.042200
     35 H12          5.9350    -0.7910     4.3320 hn         1 78V       0.260800
     36 H5          -1.7720     0.0030     1.1750 h4         1 78V       0.123000
     37 H1          -1.1000    -2.6980    -0.4110 h1         1 78V      -0.009633
     38 H           -1.8140    -3.0040    -2.0000 h1         1 78V      -0.009633
     39 H2          -2.4750    -1.7310    -0.9640 h1         1 78V      -0.009633
     40 H4          -0.2780     0.7250    -1.9430 h2         1 78V       0.031200
     41 H3          -1.7630     0.2750    -1.0940 h2         1 78V       0.031200
     42 H6          -0.5320    -0.0080     3.2890 ha         1 78V       0.127000
     43 H7           1.6490    -0.0150     4.3620 hn         1 78V       0.288800
     44 H11          3.7990    -0.8890     5.3870 h1         1 78V       0.005200
     45 H10          3.7850     0.8800     5.3940 h1         1 78V       0.005200
     46 H13          5.8460    -0.8780     6.7120 h1         1 78V       0.014700
     47 H14          5.8310     0.8910     6.7200 h1         1 78V       0.014700
     48 H15          8.0570    -0.8090     5.5100 h1         1 78V       0.044700
     49 H19          7.6140     0.3660     8.2470 h1         1 78V       0.013700
     50 H20          8.3740    -1.5760     8.7080 ho         1 78V       0.387000
     51 H17          9.4560     1.7320     8.1020 h1         1 78V       0.018700
     52 H18         11.0590     0.3700     8.5560 ho         1 78V       0.391000
     53 H16         10.1710     0.7580     5.3440 h2         1 78V       0.071700
     54 H22         14.5230     2.8450     5.6990 h5         1 78V      -0.004900
     55 H23         11.5300     7.2300     5.6040 hn         1 78V       0.276300
     56 H24         13.2640     7.2390     5.6010 hn         1 78V       0.276300
     57 H21          8.0880     3.8610     5.9170 h5         1 78V       0.041800
@<TRIPOS>BOND
     1     1     4 1   
     2     1     8 1   
     3     1    13 1   
     4     2     4 1   
     5     2     5 2   
     6     3    15 1   
     7     3    16 1   
     8     3    33 1   
     9     3    34 1   
    10     4    12 2   
    11     5    14 1   
    12     5    15 1   
    13     6    23 1   
    14     6    24 1   
    15     6    32 1   
    16     7    16 1   
    17     7    17 1   
    18     7    35 1   
    19     8    14 2   
    20     8    36 1   
    21     9    18 1   
    22     9    23 1   
    23    10    11 1   
    24    10    37 1   
    25    10    38 1   
    26    10    39 1   
    27    11    13 1   
    28    13    40 1   
    29    13    41 1   
    30    14    42 1   
    31    15    43 1   
    32    16    44 1   
    33    16    45 1   
    34    17    18 1   
    35    17    46 1   
    36    17    47 1   
    37    18    19 1   
    38    18    48 1   
    39    19    20 1   
    40    19    21 1   
    41    19    49 1   
    42    20    50 1   
    43    21    22 1   
    44    21    23 1   
    45    21    51 1   
    46    22    52 1   
    47    23    53 1   
    48    24    25 ar  
    49    24    30 ar  
    50    25    26 ar  
    51    26    27 ar  
    52    26    54 1   
    53    27    28 ar  
    54    28    29 1   
    55    28    30 ar  
    56    29    55 1   
    57    29    56 1   
    58    30    31 1   
    59    31    32 2   
    60    32    57 1   
@<TRIPOS>SUBSTRUCTURE
     1 78V         1 TEMP              0 ****  ****    0 ROOT
