@<TRIPOS>MOLECULE
78W
   38    39     1     0     0
SMALL
bcc


@<TRIPOS>ATOM
      1 C1           0.0000     0.0000     0.0000 ca         1 78W      -0.131000
      2 C3           0.0120    -0.0040     2.4140 ca         1 78W      -0.131000
      3 C4           1.3900    -0.0090     2.4020 ca         1 78W      -0.075500
      4 C5           2.0740     0.0000     1.1980 ca         1 78W      -0.056600
      5 C6           1.3790     0.0000     0.0000 ca         1 78W      -0.075500
      6 C9          -2.7290    -0.9250     0.5740 c2         1 78W       0.373800
      7 C13         -1.6600    -4.0760    -2.5330 ca         1 78W       0.154900
      8 C14         -0.9820    -5.1400    -3.1010 ca         1 78W      -0.136000
      9 S21         -4.4830    -0.8260     0.4440 ss         1 78W      -0.154300
     10 C2          -0.6950     0.0010     1.2110 ca         1 78W       0.123400
     11 N10         -2.0530    -1.9810    -0.0010 ns         1 78W      -0.058400
     12 C22         -4.7810     0.7100     1.3530 c3         1 78W      -0.066300
     13 N8          -2.0650     0.0070     1.2180 ne         1 78W      -0.591100
     14 Cl1          3.8100    -0.0070     1.1900 cl         1 78W      -0.025400
     15 C11         -2.7390    -2.9930    -0.5670 c          1 78W       0.577700
     16 O20         -3.9550    -2.9750    -0.5700 o          1 78W      -0.536100
     17 C12         -2.0160    -4.1230    -1.1810 ca         1 78W      -0.187600
     18 C17         -1.6840    -5.2440    -0.4160 ca         1 78W       0.012400
     19 Cl2         -2.1210    -5.3130     1.2630 cl         1 78W       0.010600
     20 C16         -1.0070    -6.2960    -0.9980 ca         1 78W      -0.114000
     21 C15         -0.6580    -6.2450    -2.3360 ca         1 78W      -0.043000
     22 H1          -0.5430     0.0020    -0.9370 ha         1 78W       0.119000
     23 H2          -0.5220    -0.0070     3.3570 ha         1 78W       0.119000
     24 H3           1.9400    -0.0110     3.3350 ha         1 78W       0.115500
     25 H4           1.9190     0.0030    -0.9390 ha         1 78W       0.115500
     26 H5          -0.7050    -5.1070    -4.1470 ha         1 78W       0.127000
     27 H6          -1.0530    -2.0130     0.0350 hn         1 78W       0.200500
     28 H7          -4.2570     1.5240     0.8680 h1         1 78W       0.067200
     29 H8          -4.4190     0.6040     2.3690 h1         1 78W       0.067200
     30 H10         -0.7490    -7.1660    -0.4060 ha         1 78W       0.123000
     31 H11         -0.1270    -7.0750    -2.7860 ha         1 78W       0.112000
     32 C7          -6.2590     1.0030     1.3740 c          1 78W       0.618100
     33 C8          -6.7720     2.2350     2.0740 c3         1 78W      -0.085100
     34 O1          -7.0310     0.2520     0.8290 o          1 78W      -0.530100
     35 H9          -6.3330     3.1160     1.6220 hc         1 78W       0.026033
     36 H12         -6.5020     2.1930     3.1220 hc         1 78W       0.026033
     37 H13         -7.8500     2.2800     1.9800 hc         1 78W       0.026033
     38 F1          -1.9710    -2.9950    -3.2800 f          1 78W      -0.117900
@<TRIPOS>BOND
     1     1     5 ar  
     2     1    10 ar  
     3     1    22 1   
     4     2     3 ar  
     5     2    10 ar  
     6     2    23 1   
     7     3     4 ar  
     8     3    24 1   
     9     4     5 ar  
    10     4    14 1   
    11     5    25 1   
    12     6     9 1   
    13     6    11 1   
    14     6    13 2   
    15     7     8 ar  
    16     7    17 ar  
    17     7    38 1   
    18     8    21 ar  
    19     8    26 1   
    20     9    12 1   
    21    10    13 1   
    22    11    15 1   
    23    11    27 1   
    24    12    28 1   
    25    12    29 1   
    26    12    32 1   
    27    15    16 2   
    28    15    17 1   
    29    17    18 ar  
    30    18    19 1   
    31    18    20 ar  
    32    20    21 ar  
    33    20    30 1   
    34    21    31 1   
    35    32    33 1   
    36    32    34 2   
    37    33    35 1   
    38    33    36 1   
    39    33    37 1   
@<TRIPOS>SUBSTRUCTURE
     1 78W         1 TEMP              0 ****  ****    0 ROOT
