@<TRIPOS>MOLECULE
molecule
   38    39     1     0     0
SMALL
bcc


@<TRIPOS>ATOM
      1 C1           0.0000     0.0000     0.0000 ca         1 78W      -0.153500
      2 C3           0.0120    -0.0040     2.4140 ca         1 78W      -0.153500
      3 C4           1.3900    -0.0090     2.4020 ca         1 78W      -0.105000
      4 C5           2.0740     0.0000     1.1980 ca         1 78W       0.007400
      5 C6           1.3790     0.0000     0.0000 ca         1 78W      -0.105000
      6 C9          -2.7290    -0.9250     0.5740 c2         1 78W       0.499800
      7 C13         -1.6600    -4.0760    -2.5330 ca         1 78W       0.178900
      8 C14         -0.9820    -5.1400    -3.1010 ca         1 78W      -0.169000
      9 S21         -4.4830    -0.8260     0.4440 ss         1 78W       0.012700
     10 C2          -0.6950     0.0010     1.2110 ca         1 78W       0.158400
     11 N10         -2.0530    -1.9810    -0.0010 ns         1 78W      -0.489400
     12 C22         -4.7810     0.7100     1.3530 c3         1 78W      -0.179300
     13 N8          -2.0650     0.0070     1.2180 ne         1 78W      -0.686100
     14 Cl1          3.8100    -0.0070     1.1900 cl         1 78W      -0.111400
     15 C11         -2.7390    -2.9930    -0.5670 c          1 78W       0.674700
     16 O20         -3.9550    -2.9750    -0.5700 o          1 78W      -0.527100
     17 C12         -2.0160    -4.1230    -1.1810 ca         1 78W      -0.185600
     18 C17         -1.6840    -5.2440    -0.4160 ca         1 78W       0.080400
     19 Cl2         -2.1210    -5.3130     1.2630 cl         1 78W      -0.072400
     20 C16         -1.0070    -6.2960    -0.9980 ca         1 78W      -0.139000
     21 C15         -0.6580    -6.2450    -2.3360 ca         1 78W      -0.074000
     22 H1          -0.5430     0.0020    -0.9370 ha         1 78W       0.147000
     23 H2          -0.5220    -0.0070     3.3570 ha         1 78W       0.147000
     24 H3           1.9400    -0.0110     3.3350 ha         1 78W       0.146000
     25 H4           1.9190     0.0030    -0.9390 ha         1 78W       0.146000
     26 H5          -0.7050    -5.1070    -4.1470 ha         1 78W       0.157000
     27 H6          -1.0530    -2.0130     0.0350 hn         1 78W       0.349500
     28 H7          -4.2570     1.5240     0.8680 h1         1 78W       0.097200
     29 H8          -4.4190     0.6040     2.3690 h1         1 78W       0.097200
     30 H10         -0.7490    -7.1660    -0.4060 ha         1 78W       0.156000
     31 H11         -0.1270    -7.0750    -2.7860 ha         1 78W       0.149000
     32 C7          -6.2590     1.0030     1.3740 c          1 78W       0.577100
     33 C8          -6.7720     2.2350     2.0740 c3         1 78W      -0.189100
     34 O1          -7.0310     0.2520     0.8290 o          1 78W      -0.512100
     35 H9          -7.8510     2.2770     1.9850 hc         1 78W       0.063700
     36 H12         -6.4970     2.1960     3.1210 hc         1 78W       0.063700
     37 H13         -6.3370     3.1160     1.6190 hc         1 78W       0.063700
     38 F1          -1.9710    -2.9950    -3.2800 f          1 78W      -0.121900
@<TRIPOS>BOND
     1    14     4 1
     2     5     4 ar
     3     5     1 ar
     4     4     3 ar
     5     1    10 ar
     6     3     2 ar
     7    10     2 ar
     8    10    13 1
     9    38     7 1
    10    13     6 2
    11     8     7 ar
    12     8    21 ar
    13     7    17 ar
    14    11     6 1
    15    11    15 1
    16     6     9 1
    17    21    20 ar
    18    17    15 1
    19    17    18 ar
    20    12     9 1
    21    15    16 2
    22    20    18 ar
    23    18    19 1
    24     1    22 1
    25     2    23 1
    26     3    24 1
    27     5    25 1
    28     8    26 1
    29    11    27 1
    30    12    28 1
    31    12    29 1
    32    20    30 1
    33    21    31 1
    34    12    32 1
    35    32    33 1
    36    32    34 2
    37    33    35 1
    38    33    36 1
    39    33    37 1
@<TRIPOS>SUBSTRUCTURE
     1 78W         1 TEMP              0 ****  ****    0 ROOT
