@<TRIPOS>MOLECULE
molecule
   26    27     1     0     0
SMALL
bcc


@<TRIPOS>ATOM
      1 C4           0.0000     0.0000     0.0000 ca         1 78Y      -0.023200
      2 C5           1.3880     0.0000     0.0000 ca         1 78Y      -0.101500
      3 C6           2.0780     0.0000     1.1970 ca         1 78Y      -0.110000
      4 N1          -0.1710    -0.0130    -2.3850 nc         1 78Y      -0.490800
      5 C7           1.3870     0.0010     2.3950 ca         1 78Y      -0.090000
      6 C8           0.0040     0.0020     2.3980 ca         1 78Y      -0.110000
      7 N2          -0.7020    -0.0060    -1.2130 na         1 78Y       0.428800
      8 C9          -0.6910     0.0010     1.2040 ca         1 78Y      -0.101500
      9 N3          -2.0960    -0.0060    -1.3470 nd         1 78Y      -0.482800
     10 O           -1.8860    -0.0310    -5.5070 o          1 78Y      -0.418100
     11 N            0.3230    -0.0300    -5.2740 nz         1 78Y      -0.674400
     12 C1          -1.1240    -0.0170    -3.2990 cc         1 78Y       0.048500
     13 C2          -2.3620    -0.0130    -2.6330 cc         1 78Y       0.341300
     14 C3          -3.7270    -0.0160    -3.2700 c3         1 78Y      -0.122400
     15 H1           1.9310    -0.0010    -0.9380 ha         1 78Y       0.154500
     16 H2           3.1610    -0.0000     1.1980 ha         1 78Y       0.157000
     17 H3           1.9300     0.0010     3.3320 ha         1 78Y       0.156000
     18 H4          -0.5350     0.0030     3.3380 ha         1 78Y       0.157000
     19 H5          -1.7750     0.0010     1.2070 ha         1 78Y       0.154500
     20 H6           0.8100     0.7890    -4.9690 hn         1 78Y       0.480467
     21 H7           0.2880    -0.0450    -6.2740 hn         1 78Y       0.480467
     22 H8          -4.4860    -0.0110    -2.4970 hc         1 78Y       0.078033
     23 H9          -3.8380     0.8640    -3.8910 hc         1 78Y       0.078033
     24 H10         -3.8390    -0.9050    -3.8800 hc         1 78Y       0.078033
     25 C           -0.9250    -0.0270    -4.7630 c          1 78Y       0.451600
     26 HN3          0.8090    -0.8450    -4.9570 hn         1 78Y       0.480467
@<TRIPOS>BOND
     1    14    13 1   
     2    10    25 2   
     3    25    12 1   
     4    25    11 1   
     5    13    12 1   
     6    13     9 2   
     7    12     4 2   
     8     9     7 1   
     9     4     7 1   
    10     7     1 1   
    11     1     2 ar  
    12     1     8 ar  
    13     2     3 ar  
    14     8     6 ar  
    15     3     5 ar  
    16     6     5 ar  
    17     2    15 1   
    18     3    16 1   
    19     5    17 1   
    20     6    18 1   
    21     8    19 1   
    22    11    20 1   
    23    11    21 1   
    24    14    22 1   
    25    14    23 1   
    26    14    24 1   
    27    26    11 1   
@<TRIPOS>SUBSTRUCTURE
     1 78Y         1 TEMP              0 ****  ****    0 ROOT
