@<TRIPOS>MOLECULE
78Y
   26    27     1     0     0
SMALL
bcc


@<TRIPOS>ATOM
      1 C4           0.0000     0.0000     0.0000 ca         1 78Y      -0.237200
      2 C5           1.3880     0.0000     0.0000 ca         1 78Y      -0.053000
      3 C6           2.0780     0.0000     1.1970 ca         1 78Y      -0.086000
      4 N1          -0.1710    -0.0130    -2.3850 nc         1 78Y      -0.615800
      5 C7           1.3870     0.0010     2.3950 ca         1 78Y      -0.039000
      6 C8           0.0040     0.0020     2.3980 ca         1 78Y      -0.086000
      7 N2          -0.7020    -0.0060    -1.2130 na         1 78Y       0.918800
      8 C9          -0.6910     0.0010     1.2040 ca         1 78Y      -0.053000
      9 N3          -2.0960    -0.0060    -1.3470 nc         1 78Y      -0.650800
     10 O           -1.8860    -0.0310    -5.5070 o          1 78Y      -0.445100
     11 N            0.3230    -0.0300    -5.2740 nz         1 78Y       0.212600
     12 C1          -1.1240    -0.0170    -3.2990 cd         1 78Y      -0.002500
     13 C2          -2.3620    -0.0130    -2.6330 cd         1 78Y       0.393300
     14 C3          -3.7270    -0.0160    -3.2700 c3         1 78Y      -0.015400
     15 H1           1.9310    -0.0010    -0.9380 ha         1 78Y       0.126000
     16 H2           3.1610    -0.0000     1.1980 ha         1 78Y       0.124000
     17 H3           1.9300     0.0010     3.3320 ha         1 78Y       0.120000
     18 H4          -0.5350     0.0030     3.3380 ha         1 78Y       0.124000
     19 H5          -1.7750     0.0010     1.2070 ha         1 78Y       0.126000
     20 H6           0.8100     0.7890    -4.9690 hn         1 78Y       0.244800
     21 H7           0.2880    -0.0450    -6.2740 hn         1 78Y       0.244800
     22 H8          -4.4860    -0.0110    -2.4970 hc         1 78Y       0.035700
     23 H9          -3.8380     0.8640    -3.8910 hc         1 78Y       0.035700
     24 H10         -3.8390    -0.9050    -3.8800 hc         1 78Y       0.035700
     25 C           -0.9250    -0.0270    -4.7630 c          1 78Y       0.298600
     26 HN3          0.8090    -0.8450    -4.9570 hn         1 78Y       0.244800
@<TRIPOS>BOND
     1     1     2 ar  
     2     1     7 1   
     3     1     8 ar  
     4     2     3 ar  
     5     2    15 1   
     6     3     5 ar  
     7     3    16 1   
     8     4     7 1   
     9     4    12 2   
    10     5     6 ar  
    11     5    17 1   
    12     6     8 ar  
    13     6    18 1   
    14     7     9 1   
    15     8    19 1   
    16     9    13 2   
    17    10    25 2   
    18    11    20 1   
    19    11    21 1   
    20    11    25 1   
    21    11    26 1   
    22    12    13 1   
    23    12    25 1   
    24    13    14 1   
    25    14    22 1   
    26    14    23 1   
    27    14    24 1   
@<TRIPOS>SUBSTRUCTURE
     1 78Y         1 TEMP              0 ****  ****    0 ROOT
