@<TRIPOS>MOLECULE
molecule
   36    38     1     0     0
SMALL
bcc


@<TRIPOS>ATOM
      1 C10          0.0000     0.0000     0.0000 c3         1 78Z      -0.146400
      2 C9           1.5080     0.0000     0.0000 cc         1 78Z       0.504600
      3 N5           2.1610     0.0000     1.1420 nd         1 78Z      -0.677000
      4 C11          3.4990    -0.0010     1.1760 cd         1 78Z       0.471500
      5 N4           4.3710    -0.0020     2.1790 nc         1 78Z      -0.426300
      6 C12          5.6070    -0.0030     1.6980 cc         1 78Z       0.520300
      7 N3           5.5700    -0.0020     0.3870 nd         1 78Z      -0.566100
      8 N2           4.2190    -0.0010     0.0160 na         1 78Z      -0.010800
      9 C8           2.1980    -0.0050    -1.2080 cc         1 78Z      -0.333300
     10 C7           3.5800     0.0000    -1.1910 cd         1 78Z       0.289300
     11 C13          6.8630    -0.0030     2.5310 c3         1 78Z       0.429300
     12 C14          6.4910    -0.0040     4.0150 c3         1 78Z      -0.123100
     13 F4           7.6160    -1.1460     2.2380 f          1 78Z      -0.219800
     14 F5           7.6170     1.1390     2.2400 f          1 78Z      -0.219800
     15 N1           4.2970     0.0010    -2.3670 nu         1 78Z      -0.676000
     16 C2           5.2260     1.0150    -2.6190 ca         1 78Z       0.080300
     17 C3           5.3240     2.1110    -1.7660 ca         1 78Z      -0.137000
     18 C4           6.2600     3.0900    -2.0570 ca         1 78Z      -0.160300
     19 C5           7.0600     2.9480    -3.1750 ca         1 78Z       0.299600
     20 N6           6.9440     1.8970    -3.9630 nb         1 78Z      -0.614000
     21 C1           6.0700     0.9410    -3.7200 ca         1 78Z       0.376200
     22 C16          8.0810     4.0100    -3.4980 c3         1 78Z       0.589600
     23 F1           9.2930     3.6960    -2.8750 f          1 78Z      -0.215967
     24 F2           8.2700     4.0680    -4.8830 f          1 78Z      -0.215967
     25 F3           7.6260     5.2500    -3.0360 f          1 78Z      -0.215967
     26 H102        -0.3610     0.1080     1.0160 hc         1 78Z       0.066367
     27 H103        -0.3610    -0.9340    -0.4140 hc         1 78Z       0.066367
     28 H101        -0.3610     0.8250    -0.6020 hc         1 78Z       0.066367
     29 H81          1.6690    -0.1970    -2.1340 ha         1 78Z       0.169000
     30 H142         5.9070    -0.8880     4.2410 hc         1 78Z       0.070700
     31 H143         7.3940    -0.0040     4.6140 hc         1 78Z       0.070700
     32 H141         5.9080     0.8810     4.2420 hc         1 78Z       0.070700
     33 H11          4.1600    -0.7300    -3.0370 hn         1 78Z       0.471800
     34 H31          4.6830     2.1970    -0.8960 ha         1 78Z       0.152000
     35 H41          6.3630     3.9570    -1.4160 ha         1 78Z       0.161000
     36 H12          6.0040     0.0920    -4.3900 h4         1 78Z       0.031100
@<TRIPOS>BOND
     1     1     2 1
     2     3     2 2
     3     3     4 1
     4     2     9 1
     5     4     5 2
     6     4     8 1
     7     5     6 1
     8     9    10 2
     9    14    11 1
    10     8    10 1
    11     8     7 1
    12    10    15 1
    13     6    11 1
    14     6     7 2
    15    11    12 1
    16    11    13 1
    17    15    16 1
    18    16    17 ar
    19    16    21 ar
    20    17    18 ar
    21    21    20 ar
    22    18    19 ar
    23    20    19 ar
    24    19    22 1
    25    24    22 1
    26    22    23 1
    27    22    25 1
    28     1    26 1
    29     1    27 1
    30     1    28 1
    31     9    29 1
    32    12    30 1
    33    12    31 1
    34    12    32 1
    35    15    33 1
    36    17    34 1
    37    18    35 1
    38    21    36 1
@<TRIPOS>SUBSTRUCTURE
     1 78Z         1 TEMP              0 ****  ****    0 ROOT
