@<TRIPOS>MOLECULE
790
   25    26     1     0     0
SMALL
bcc


@<TRIPOS>ATOM
      1 C1           0.0000     0.0000     0.0000 c3         1 790      -0.037400
      2 C2           1.5300     0.0000     0.0000 c3         1 790       0.052900
      3 C3           2.0280     0.0000     1.4250 ca         1 790      -0.141300
      4 C4           1.1950     0.2510     2.4960 ca         1 790      -0.046400
      5 N5          -0.1680     0.5200     2.3750 nu         1 790      -0.336600
      6 C6          -0.4600     1.0310     1.0380 c3         1 790       0.122800
      7 C13          3.3740    -0.2640     1.6390 ca         1 790      -0.203000
      8 C14          3.8960    -0.2700     2.9160 ca         1 790      -0.124000
      9 C15          3.0720    -0.0080     3.9950 ca         1 790      -0.148000
     10 C16          1.7320     0.2540     3.7900 ca         1 790       0.263100
     11 O17          0.9250     0.5120     4.8550 os         1 790      -0.349500
     12 P18          0.6360    -0.8990     5.5720 p5         1 790       0.639900
     13 O19         -0.4350    -0.6910     6.7560 o          1 790      -0.734500
     14 O20          0.0930    -1.8540     4.5790 o          1 790      -0.734500
     15 O21          2.0050    -1.4820     6.1840 o          1 790      -0.734500
     16 H11         -0.3560     0.2970    -0.9790 hc         1 790       0.010200
     17 H12         -0.3560    -0.9810     0.2910 hc         1 790       0.010200
     18 H21A         1.8800     0.8990    -0.4930 hc         1 790      -0.009300
     19 H22          1.8800    -0.8990    -0.4930 hc         1 790      -0.009300
     20 HN5         -0.4360     1.2000     3.0580 hn         1 790       0.266800
     21 H61         -1.5290     1.1730     0.9420 h1         1 790      -0.016300
     22 H62          0.0920     1.9510     0.8860 h1         1 790      -0.016300
     23 H13          4.0210    -0.4690     0.7940 ha         1 790       0.063000
     24 H14          4.9480    -0.4760     3.0720 ha         1 790       0.063000
     25 H15          3.4770    -0.0120     5.0000 ha         1 790       0.148000
@<TRIPOS>BOND
     1     1     2 1   
     2     1     6 1   
     3     1    16 1   
     4     1    17 1   
     5     2     3 1   
     6     2    18 1   
     7     2    19 1   
     8     3     4 ar  
     9     3     7 ar  
    10     4     5 1   
    11     4    10 ar  
    12     5     6 1   
    13     5    20 1   
    14     6    21 1   
    15     6    22 1   
    16     7     8 ar  
    17     7    23 1   
    18     8     9 ar  
    19     8    24 1   
    20     9    10 ar  
    21     9    25 1   
    22    10    11 1   
    23    11    12 1   
    24    12    13 1   
    25    12    14 1   
    26    12    15 1   
@<TRIPOS>SUBSTRUCTURE
     1 790         1 TEMP              0 ****  ****    0 ROOT
