@<TRIPOS>MOLECULE
molecule
   19    19     1     0     0
SMALL
bcc


@<TRIPOS>ATOM
      1 C1           0.0000     0.0000     0.0000 ca         1 791      -0.192000
      2 C2           1.3820     0.0000     0.0000 ca         1 791      -0.158000
      3 C3           2.0730     0.0000     1.1970 ca         1 791      -0.108000
      4 C4           1.3820     0.0000     2.3950 ca         1 791       0.058700
      5 C5          -0.0000    -0.0060     2.3930 ca         1 791      -0.108000
      6 C6          -0.6920    -0.0010     1.1960 ca         1 791      -0.158000
      7 C12          2.1350    -0.0000     3.7000 c3         1 791      -0.244400
      8 C13          1.7710     1.2310     4.4900 c          1 791       0.918100
      9 C14          1.7710    -1.2310     4.4900 c          1 791       0.918100
     10 O16          2.3240     1.4430     5.6940 o          1 791      -0.868300
     11 O17          0.9800     2.0260     4.0390 o          1 791      -0.868300
     12 O18          2.0060    -2.4500     3.9790 o          1 791      -0.868300
     13 O19          1.2670    -1.1200     5.5830 o          1 791      -0.868300
     14 H1          -0.5410     0.0020    -0.9380 ha         1 791       0.075000
     15 H2           1.9240     0.0000    -0.9380 ha         1 791       0.083000
     16 H3           3.1570     0.0020     1.1970 ha         1 791       0.132500
     17 H5          -0.5420    -0.0060     3.3310 ha         1 791       0.132500
     18 H6          -1.7750    -0.0030     1.1960 ha         1 791       0.083000
     19 H12          3.2000     0.0000     3.5020 hc         1 791       0.039700
@<TRIPOS>BOND
     1     1     2 ar  
     2     1     6 ar  
     3     1    14 1   
     4     2     3 ar  
     5     2    15 1   
     6     3     4 ar  
     7     3    16 1   
     8     4     5 ar  
     9     4     7 1   
    10     5     6 ar  
    11     5    17 1   
    12     6    18 1   
    13     7     8 1   
    14     7     9 1   
    15     7    19 1   
    16     8    10 1   
    17     8    11 1   
    18     9    12 1   
    19     9    13 1   
@<TRIPOS>SUBSTRUCTURE
     1 791         1 TEMP              0 ****  ****    0 ROOT
