@<TRIPOS>MOLECULE
791
   19    19     1     0     0
SMALL
bcc


@<TRIPOS>ATOM
      1 C1         -0.0350    0.1420   -0.0140 ca        1 791     -0.198000
      2 C2          1.3490   -0.0070   -0.0130 ca        1 791     -0.164000
      3 C3          2.0460   -0.0920    1.1940 ca        1 791     -0.121500
      4 C4          1.3700   -0.0290    2.4200 ca        1 791      0.038700
      5 C5         -0.0320    0.1220    2.4070 ca        1 791     -0.121500
      6 C6         -0.7210    0.2060    1.2040 ca        1 791     -0.164000
      7 C12         2.0940   -0.1180    3.7130 c3        1 791     -0.261400
      8 C13         1.9420    1.1960    4.5200 c         1 791      0.935600
      9 C14         1.6640   -1.3830    4.4980 c         1 791      0.935600
     10 O16         3.0090    1.7500    4.9300 o         1 791     -0.869300
     11 O17         0.8050    1.7220    4.7040 o         1 791     -0.869300
     12 O18         2.5870   -2.1600    4.8940 o         1 791     -0.869300
     13 O19         0.4410   -1.6550    4.6780 o         1 791     -0.869300
     14 H1         -0.5840    0.2100   -0.9620 ha        1 791      0.076000
     15 H2          1.8960   -0.0580   -0.9640 ha        1 791      0.083500
     16 H3          3.1390   -0.2100    1.1860 ha        1 791      0.154500
     17 H5         -0.5340    0.1680    3.3920 ha        1 791      0.154500
     18 H6         -1.8130    0.3240    1.2050 ha        1 791      0.083500
     19 H12         3.1970   -0.2350    3.5140 hc        1 791      0.044700
@<TRIPOS>BOND
     1    1    2 ar  
     2    1    6 ar  
     3    1   14 1   
     4    2    3 ar  
     5    2   15 1   
     6    3    4 ar  
     7    3   16 1   
     8    4    5 ar  
     9    4    7 1   
    10    5    6 ar  
    11    5   17 1   
    12    6   18 1   
    13    7    8 1   
    14    7    9 1   
    15    7   19 1   
    16    8   10 1   
    17    8   11 1   
    18    9   12 1   
    19    9   13 1   
@<TRIPOS>SUBSTRUCTURE
     1 791         1 TEMP              0 ****  ****    0 ROOT
