@<TRIPOS>MOLECULE
molecule
   51    53     1     0     0
SMALL
bcc


@<TRIPOS>ATOM
      1 C1           0.0000     0.0000     0.0000 ca         1 792      -0.168000
      2 C2           1.3910     0.0000     0.0000 ca         1 792      -0.041200
      3 C3           2.0810     0.0000     1.2260 ca         1 792      -0.090800
      4 C4           1.3670     0.0000     2.4260 ca         1 792      -0.055000
      5 C5           0.0010     0.0000     2.4040 ca         1 792      -0.122300
      6 C6          -0.6830     0.0050     1.1960 ca         1 792      -0.112000
      7 S7           5.0480    -3.8010     0.9720 sy         1 792       1.424200
      8 C8           3.3000    -3.8940     0.7720 ca         1 792      -0.338500
      9 C9           2.4830    -4.0070     1.8810 ca         1 792       0.012000
     10 C10          1.1120    -4.0810     1.7270 ca         1 792      -0.216000
     11 C11          0.5550    -4.0410     0.4570 ca         1 792       0.178100
     12 C12          1.3770    -3.9280    -0.6550 ca         1 792      -0.216000
     13 C13          2.7470    -3.8490    -0.4940 ca         1 792       0.012000
     14 O14         -0.7930    -4.1140     0.3020 os         1 792      -0.323900
     15 C15         -1.2950    -4.0670    -1.0350 c3         1 792       0.230500
     16 C16         -2.7650    -4.1580    -1.0100 c1         1 792      -0.141100
     17 C17         -3.9370    -4.2150    -0.9760 c1         1 792      -0.136100
     18 C18         -5.5250    -4.5350    -1.1200 c3         1 792       0.024000
     19 O19          5.3410    -4.4060     2.2250 o          1 792      -0.646300
     20 O20          5.6170    -4.2360    -0.2540 o          1 792      -0.646300
     21 N21          2.3400     0.0000    -0.9990 na         1 792      -0.209400
     22 C22          3.5930     0.0000    -0.4510 cc         1 792      -0.123100
     23 C23          3.5060     0.0010     0.8890 cd         1 792      -0.101400
     24 C24          4.6580    -0.0000     1.8620 c3         1 792      -0.008200
     25 C25          4.9660    -1.4370     2.2850 c3         1 792       0.141500
     26 C26          6.0340    -1.4290     3.3490 c          1 792       0.882600
     27 N27          5.4380    -2.1980     1.1260 n7         1 792      -0.870100
     28 O28          5.8210    -0.7880     4.5090 o          1 792      -0.830800
     29 O29          7.0810    -2.0000     3.1590 o          1 792      -0.830800
     30 C48         -0.7680     0.0010     3.6990 c3         1 792      -0.040800
     31 H1          -0.6000     0.2410    -0.8690 ha         1 792       0.111000
     32 H4           1.7630     0.4450     3.3310 ha         1 792       0.146000
     33 H6          -1.7270     0.2510     1.0390 ha         1 792       0.118000
     34 H9           2.9200    -4.0890     2.8690 ha         1 792       0.155000
     35 H10          0.4740    -4.1820     2.5960 ha         1 792       0.132500
     36 H12          0.9440    -3.8930    -1.6480 ha         1 792       0.132500
     37 H13          3.3910    -3.7990    -1.3640 ha         1 792       0.155000
     38 H15         -1.0380    -4.9850    -1.5500 h1         1 792       0.052700
     39 H15A        -0.8570    -3.2250    -1.5560 h1         1 792       0.052700
     40 H18         -6.0630    -4.0670    -0.3040 hc         1 792       0.046700
     41 H18A        -5.6820    -5.6070    -1.0870 hc         1 792       0.046700
     42 H18B        -5.8880    -4.1450    -2.0630 hc         1 792       0.046700
     43 H22          4.2860     0.3450    -1.2090 h4         1 792       0.148000
     44 H24          5.5110     0.4930     1.4110 hc         1 792       0.065200
     45 H24A         4.3700     0.5280     2.7630 hc         1 792       0.065200
     46 H25          4.0680    -1.8980     2.6790 h1         1 792       0.052700
     47 HN27         5.9470    -1.7350     0.4000 hn         1 792       0.441800
     48 H48         -1.0070     1.0200     3.9770 hc         1 792       0.036700
     49 H48A        -0.1650    -0.4530     4.4770 hc         1 792       0.036700
     50 H48B        -1.6840    -0.5650     3.5760 hc         1 792       0.036700
     51 HN21         2.1960     0.1790    -1.9730 hn         1 792       0.279700
@<TRIPOS>BOND
     1     6     1 ar  
     2     1     2 ar  
     3     1    31 1   
     4     3     2 ar  
     5     2    21 1   
     6     4     3 ar  
     7     3    23 1   
     8     5     4 ar  
     9     4    32 1   
    10    30     5 1   
    11     5     6 ar  
    12     6    33 1   
    13    27     7 1   
    14    20     7 2   
    15     7     8 1   
    16     7    19 2   
    17     9     8 ar  
    18     8    13 ar  
    19     9    10 ar  
    20     9    34 1   
    21    10    11 ar  
    22    10    35 1   
    23    11    14 1   
    24    11    12 ar  
    25    13    12 ar  
    26    12    36 1   
    27    13    37 1   
    28    14    15 1   
    29    15    16 1   
    30    15    38 1   
    31    15    39 1   
    32    16    17 3   
    33    17    18 1   
    34    18    40 1   
    35    18    41 1   
    36    18    42 1   
    37    22    21 1   
    38    23    22 2   
    39    22    43 1   
    40    24    23 1   
    41    24    25 1   
    42    24    44 1   
    43    24    45 1   
    44    25    26 1   
    45    25    27 1   
    46    25    46 1   
    47    29    26 1   
    48    26    28 1   
    49    27    47 1   
    50    30    48 1   
    51    30    49 1   
    52    30    50 1   
    53    21    51 1   
@<TRIPOS>SUBSTRUCTURE
     1 792         1 TEMP              0 ****  ****    0 ROOT
