@<TRIPOS>MOLECULE
793
   37    39     1     0     0
SMALL
bcc


@<TRIPOS>ATOM
      1 C1           0.0000     0.0000     0.0000 c3         1 793      -0.016100
      2 C2           1.5300     0.0000     0.0000 c3         1 793       0.185800
      3 C3           2.0320     0.0000     1.4210 ca         1 793      -0.111300
      4 C4           2.4580    -1.1790     2.0040 ca         1 793      -0.094000
      5 C5           2.9180    -1.1780     3.3070 ca         1 793      -0.093000
      6 C6           2.9530     0.0010     4.0280 ca         1 793      -0.094000
      7 C11          2.3510     1.1980    -4.1110 c          1 793       0.547300
      8 C12          1.9000     0.1950    -3.1120 c          1 793       0.539300
      9 C13          3.4970     4.0820    -4.0650 ca         1 793       0.014600
     10 C14          3.3010     5.4510    -4.2450 ca         1 793      -0.257300
     11 C15          3.7870     6.0530    -5.3870 ca         1 793       0.434700
     12 C16          4.6350     4.0530    -6.1670 ca         1 793       0.434700
     13 C17          4.1810     3.3760    -5.0550 ca         1 793      -0.257300
     14 C7           2.5280     1.1800     3.4450 ca         1 793      -0.093000
     15 C8           2.0710     1.1810     2.1400 ca         1 793      -0.094000
     16 N1           2.0180     1.1960    -0.6910 nu         1 793      -0.323000
     17 C9           2.1500     1.1930    -2.0560 cc         1 793      -0.147200
     18 C10          2.5760     2.1420    -3.0010 cd         1 793      -0.229200
     19 O2           1.4980    -0.9530    -3.1480 o          1 793      -0.518100
     20 N2           3.0270     3.4370    -2.9220 nu         1 793      -0.115400
     21 N3           4.4290     5.3500    -6.3010 nb         1 793      -0.605000
     22 H1          -0.3610    -0.3830    -0.9470 hc         1 793       0.016033
     23 H1A         -0.3610     1.0110     0.1420 hc         1 793       0.016033
     24 H1B         -0.3610    -0.6290     0.8050 hc         1 793       0.016033
     25 H2           1.8910    -0.8850    -0.5110 h1         1 793       0.055700
     26 H4           2.4310    -2.1030     1.4390 ha         1 793       0.107000
     27 H5           3.2520    -2.1020     3.7640 ha         1 793       0.106000
     28 H6           3.3120     0.0010     5.0500 ha         1 793       0.106000
     29 H14          2.7750     6.0340    -3.4980 ha         1 793       0.126000
     30 H15          3.6390     7.1160    -5.5350 h4         1 793      -0.019900
     31 H16          5.1660     3.5130    -6.9410 h4         1 793      -0.019900
     32 H17          4.3530     2.3120    -4.9510 ha         1 793       0.126000
     33 H7           2.5570     2.1040     4.0090 ha         1 793       0.106000
     34 H8           1.7380     2.1050     1.6830 ha         1 793       0.107000
     35 HN2          3.0300     3.9120    -2.0420 hn         1 793       0.271800
     36 H151         2.2860     2.0040    -0.1640 hn         1 793       0.290800
     37 O1           2.4820     1.2260    -5.3200 o          1 793      -0.517100
@<TRIPOS>BOND
     1     1     2 1   
     2     1    22 1   
     3     1    23 1   
     4     1    24 1   
     5     2     3 1   
     6     2    16 1   
     7     2    25 1   
     8     3     4 ar  
     9     3    15 ar  
    10     4     5 ar  
    11     4    26 1   
    12     5     6 ar  
    13     5    27 1   
    14     6    14 ar  
    15     6    28 1   
    16     7     8 1   
    17     7    18 1   
    18     7    37 2   
    19     8    17 1   
    20     8    19 2   
    21     9    10 ar  
    22     9    13 ar  
    23     9    20 1   
    24    10    11 ar  
    25    10    29 1   
    26    11    21 ar  
    27    11    30 1   
    28    12    13 ar  
    29    12    21 ar  
    30    12    31 1   
    31    13    32 1   
    32    14    15 ar  
    33    14    33 1   
    34    15    34 1   
    35    16    17 1   
    36    16    36 1   
    37    17    18 2   
    38    18    20 1   
    39    20    35 1   
@<TRIPOS>SUBSTRUCTURE
     1 793         1 TEMP              0 ****  ****    0 ROOT
