@<TRIPOS>MOLECULE
molecule
   36    38     1     0     0
SMALL
bcc


@<TRIPOS>ATOM
      1 O35          0.0000     0.0000     0.0000 o          1 794      -0.820300
      2 C30          1.3450     0.0000     0.0000 c          1 794       0.842600
      3 O36          1.9520     0.0000     1.0510 o          1 794      -0.820300
      4 C19          2.0910     0.0020    -1.2920 c          1 794       0.606100
      5 O34          1.4840     0.0030    -2.3430 o          1 794      -0.605100
      6 N18          3.4380     0.0020    -1.2920 n          1 794      -0.312200
      7 C20          4.1340     0.0020    -2.4980 ca         1 794       0.098600
      8 C21          4.6290     1.1910    -3.0170 ca         1 794      -0.152000
      9 C22          5.3190     1.1900    -4.2120 ca         1 794      -0.161000
     10 C23          5.5220     0.0060    -4.9030 ca         1 794      -0.178000
     11 C24          5.0380    -1.1830    -4.4050 ca         1 794      -0.098000
     12 C25          4.3420    -1.1980    -3.1920 ca         1 794      -0.093600
     13 C31          3.8220    -2.4670    -2.6530 c          1 794       0.882200
     14 O32          3.1260    -2.4630    -1.6570 o          1 794      -0.831800
     15 O33          4.1190    -3.6310    -3.2630 o          1 794      -0.831800
     16 C11          4.1350     0.0020    -0.0850 ca         1 794       0.171600
     17 C12          4.5950    -1.1810     0.4530 ca         1 794      -0.121000
     18 C13          5.2930    -1.1930     1.6570 ca         1 794      -0.099000
     19 C14          5.5400    -0.0400     2.3360 ca         1 794      -0.177000
     20 C2           5.0880     1.1890     1.8230 ca         1 794      -0.006000
     21 C1           4.3820     1.2140     0.5960 ca         1 794       0.012000
     22 C6           3.9280     2.4390     0.0870 ca         1 794      -0.061000
     23 C5           4.1790     3.5890     0.7720 ca         1 794      -0.205000
     24 C4           4.8770     3.5650     1.9780 ca         1 794      -0.167000
     25 C3           5.3290     2.3950     2.5030 ca         1 794      -0.137000
     26 H21          4.4750     2.1210    -2.4830 ha         1 794       0.118000
     27 H22          5.7030     2.1200    -4.6130 ha         1 794       0.090000
     28 H23          6.0630     0.0160    -5.8420 ha         1 794       0.088000
     29 H24          5.2010    -2.1060    -4.9480 ha         1 794       0.144000
     30 H12          4.4120    -2.1130    -0.0690 ha         1 794       0.193000
     31 H13          5.6450    -2.1350     2.0600 ha         1 794       0.103000
     32 H14          6.0850    -0.0690     3.2720 ha         1 794       0.096000
     33 H6           3.2930     2.9190    -0.6480 ha         1 794       0.147000
     34 H5           3.8780     4.5890     0.4860 ha         1 794       0.098000
     35 H4           5.0540     4.5010     2.4930 ha         1 794       0.087000
     36 H3           5.8560     2.5330     3.4390 ha         1 794       0.099000
@<TRIPOS>BOND
     1     1     2 1   
     2     2     3 1   
     3     2     4 1   
     4     4     5 2   
     5     4     6 1   
     6     6     7 1   
     7     6    16 1   
     8     7     8 ar  
     9     7    12 ar  
    10     8     9 ar  
    11     8    26 1   
    12     9    10 ar  
    13     9    27 1   
    14    10    11 ar  
    15    10    28 1   
    16    11    12 ar  
    17    11    29 1   
    18    12    13 1   
    19    13    14 1   
    20    13    15 1   
    21    16    17 ar  
    22    16    21 ar  
    23    17    18 ar  
    24    17    30 1   
    25    18    19 ar  
    26    18    31 1   
    27    19    20 ar  
    28    19    32 1   
    29    20    21 ar  
    30    20    25 ar  
    31    21    22 ar  
    32    22    23 ar  
    33    22    33 1   
    34    23    24 ar  
    35    23    34 1   
    36    24    25 ar  
    37    24    35 1   
    38    25    36 1   
@<TRIPOS>SUBSTRUCTURE
     1 794         1 TEMP              0 ****  ****    0 ROOT
