@<TRIPOS>MOLECULE
795
   19    20     1     0     0
SMALL
bcc


@<TRIPOS>ATOM
      1 C1         -0.0420   -0.0200    0.0030 ca        1 795     -0.252800
      2 C2          1.3560    0.1130   -0.0370 ca        1 795     -0.086000
      3 C3          2.0710    0.1090    1.1580 ca        1 795     -0.245300
      4 C4          1.3610   -0.0260    2.3660 ca        1 795      0.408200
      5 N5          0.0210   -0.1530    2.4280 nb        1 795     -0.664000
      6 C6         -0.6620   -0.1490    1.2690 ca        1 795      0.440200
      7 C7         -0.8200   -0.0270   -1.2200 cc        1 795      0.452900
      8 S8         -0.0500   -0.2240   -2.7640 ss        1 795     -0.056300
      9 C9         -1.5110   -0.1280   -3.5390 cc        1 795     -0.194400
     10 C10        -2.5500    0.0480   -2.6230 cd        1 795      0.236800
     11 N11        -2.1490    0.1060   -1.2920 nd        1 795     -0.603000
     12 C12        -3.9700    0.1690   -3.0030 c         1 795      0.498400
     13 O13        -4.3360    0.1210   -4.1780 o         1 795     -0.526100
     14 H2          1.8790    0.2220   -1.0000 ha        1 795      0.139000
     15 H3          3.1640    0.2110    1.1630 ha        1 795      0.149000
     16 H4          1.8900   -0.0330    3.3370 h4        1 795      0.027100
     17 H6         -1.7600   -0.2530    1.3570 h4        1 795      0.046100
     18 H9         -1.6620   -0.1920   -4.6180 h4        1 795      0.202000
     19 H12        -4.6880    0.3070   -2.1640 h4        1 795      0.028200
@<TRIPOS>BOND
     1    1    2 ar  
     2    1    6 ar  
     3    1    7 1   
     4    2    3 ar  
     5    2   14 1   
     6    3    4 ar  
     7    3   15 1   
     8    4    5 ar  
     9    4   16 1   
    10    5    6 ar  
    11    6   17 1   
    12    7    8 1   
    13    7   11 2   
    14    8    9 1   
    15    9   10 2   
    16    9   18 1   
    17   10   11 1   
    18   10   12 1   
    19   12   13 2   
    20   12   19 1   
@<TRIPOS>SUBSTRUCTURE
     1 795         1 TEMP              0 ****  ****    0 ROOT
