@<TRIPOS>MOLECULE
molecule
   19    20     1     0     0
SMALL
bcc


@<TRIPOS>ATOM
      1 C1           0.0000     0.0000     0.0000 ca         1 795      -0.253800
      2 C2           1.4000     0.0000     0.0000 ca         1 795      -0.081000
      3 C3           2.0550     0.0000     1.2180 ca         1 795      -0.254300
      4 C4           1.3140     0.0000     2.3870 ca         1 795       0.432200
      5 N5          -0.0050     0.0010     2.3560 nb         1 795      -0.688000
      6 C6          -0.6740     0.0010     1.2220 ca         1 795       0.463200
      7 C7          -0.7520     0.0060    -1.2740 cc         1 795       0.510900
      8 S8          -0.0290     0.0060    -2.8780 ss         1 795      -0.162300
      9 C9          -1.5790     0.0150    -3.5990 cc         1 795      -0.144400
     10 C10         -2.5280     0.0180    -2.6150 cd         1 795       0.260800
     11 N11         -2.0450     0.0080    -1.3770 nd         1 795      -0.648000
     12 C12         -3.9650     0.0250    -2.9010 c          1 795       0.506400
     13 O13         -4.3540     0.0290    -4.0510 o          1 795      -0.524100
     14 H2           1.9550    -0.0000    -0.9300 ha         1 795       0.141000
     15 H3           3.1380    -0.0000     1.2570 ha         1 795       0.143000
     16 H4           1.8250     0.0000     3.3420 h4         1 795       0.027100
     17 H6          -1.7570     0.0010     1.2380 h4         1 795       0.047100
     18 H9          -1.7780     0.0190    -4.6640 h4         1 795       0.202000
     19 H12         -4.6790     0.0710    -2.0880 h4         1 795       0.023200
@<TRIPOS>BOND
     1     7     1 1   
     2     1     6 ar  
     3     1     2 ar  
     4     2     3 ar  
     5     2    14 1   
     6     3     4 ar  
     7     3    15 1   
     8     5     4 ar  
     9     4    16 1   
    10     6     5 ar  
    11     6    17 1   
    12    11     7 2   
    13     8     7 1   
    14     9     8 1   
    15    10     9 2   
    16     9    18 1   
    17    12    10 1   
    18    10    11 1   
    19    13    12 2   
    20    12    19 1   
@<TRIPOS>SUBSTRUCTURE
     1 795         1 TEMP              0 ****  ****    0 ROOT
