@<TRIPOS>MOLECULE
796
   48    50     1     0     0
SMALL
bcc


@<TRIPOS>ATOM
      1 O23          0.0000     0.0000     0.0000 o          1 796      -0.697100
      2 C22          1.2170     0.0000     0.0000 c          1 796       0.670700
      3 C18          1.9500     0.0000     1.2710 cc         1 796      -0.138700
      4 S1           3.7140    -0.0000     1.5480 ss         1 796      -0.283800
      5 C17          1.4520    -0.0010     2.5650 cd         1 796       0.000000
      6 C16          2.3350    -0.0070     3.6090 cd         1 796      -0.159000
      7 C15          3.6920    -0.0010     3.3330 cc         1 796       0.088400
      8 C3           4.8300    -0.0010     4.2750 ca         1 796       0.522800
      9 C2           6.1460     0.0010     3.8000 ca         1 796      -0.408600
     10 N4           4.6200    -0.0070     5.5920 nb         1 796      -0.678000
     11 C5           5.6380    -0.0020     6.4370 ca         1 796       0.724900
     12 N9           5.3850    -0.0040     7.7970 nu         1 796      -0.464900
     13 C10          6.4990    -0.0040     8.7500 c3         1 796       0.198100
     14 N6           6.8940    -0.0000     6.0130 nb         1 796      -0.675000
     15 C1           7.1790     0.0010     4.7200 ca         1 796       0.506200
     16 N24          1.8900     0.0010    -1.1670 ns         1 796      -0.217900
     17 C25          1.1580     0.0010    -2.4360 c3         1 796       0.002700
     18 C27          0.7940    -1.4350    -2.8150 c3         1 796      -0.063200
     19 N43          0.0540    -2.0610    -1.7120 nz         1 796       0.053400
     20 C28          2.0350     0.6120    -3.5310 c3         1 796       0.035900
     21 C30          2.2920     2.0640    -3.2180 ca         1 796      -0.132300
     22 C37          3.4890     2.4460    -2.6420 ca         1 796      -0.075000
     23 C36          3.7260     3.7760    -2.3550 ca         1 796      -0.083000
     24 C35          2.7630     4.7280    -2.6430 ca         1 796      -0.021600
     25 Cl4          3.0600     6.4000    -2.2820 cl         1 796       0.027600
     26 C34          1.5650     4.3460    -3.2190 ca         1 796      -0.081000
     27 C33          1.3320     3.0150    -3.5120 ca         1 796      -0.016600
     28 Cl2         -0.1720     2.5350    -4.2360 cl         1 796      -0.015400
     29 H17          0.3840    -0.0050     2.7460 ha         1 796       0.130000
     30 H16          1.9790    -0.0090     4.6320 ha         1 796       0.150000
     31 H2           6.3520     0.0020     2.7370 ha         1 796       0.129000
     32 HN9          4.4410    -0.0060     8.1300 hn         1 796       0.300800
     33 H101         7.1060    -0.8870     8.5960 h1         1 796       0.015700
     34 H102         7.1040     0.8820     8.5980 h1         1 796       0.015700
     35 H103         6.1090    -0.0050     9.7610 h1         1 796       0.015700
     36 H1           8.2090     0.0020     4.3870 h4         1 796      -0.010900
     37 HN24         2.8900    -0.0310    -1.1670 hn         1 796       0.213500
     38 H25          0.2530     0.5870    -2.3300 h1         1 796       0.087700
     39 H271         1.6990    -1.9980    -3.0080 hx         1 796       0.083200
     40 H272         0.1770    -1.4280    -3.7050 hx         1 796       0.083200
     41 H431        -0.3140    -2.9410    -2.0140 hn         1 796       0.236800
     42 H432         0.6700    -2.2050    -0.9360 hn         1 796       0.236800
     43 H281         2.9770     0.0800    -3.5760 hc         1 796       0.040700
     44 H282         1.5280     0.5320    -4.4850 hc         1 796       0.040700
     45 H37          4.2430     1.7010    -2.4160 ha         1 796       0.108000
     46 H36          4.6640     4.0740    -1.9030 ha         1 796       0.127000
     47 H34          0.8120     5.0910    -3.4480 ha         1 796       0.137000
     48 H433        -0.7080    -1.4700    -1.4440 hn         1 796       0.236800
@<TRIPOS>BOND
     1     1     2 2   
     2     2     3 1   
     3     2    16 1   
     4     3     4 1   
     5     3     5 2   
     6     4     7 1   
     7     5     6 1   
     8     5    29 1   
     9     6     7 2   
    10     6    30 1   
    11     7     8 1   
    12     8     9 ar  
    13     8    10 ar  
    14     9    15 ar  
    15     9    31 1   
    16    10    11 ar  
    17    11    12 1   
    18    11    14 ar  
    19    12    13 1   
    20    12    32 1   
    21    13    33 1   
    22    13    34 1   
    23    13    35 1   
    24    14    15 ar  
    25    15    36 1   
    26    16    17 1   
    27    16    37 1   
    28    17    18 1   
    29    17    20 1   
    30    17    38 1   
    31    18    19 1   
    32    18    39 1   
    33    18    40 1   
    34    19    41 1   
    35    19    42 1   
    36    19    48 1   
    37    20    21 1   
    38    20    43 1   
    39    20    44 1   
    40    21    22 ar  
    41    21    27 ar  
    42    22    23 ar  
    43    22    45 1   
    44    23    24 ar  
    45    23    46 1   
    46    24    25 1   
    47    24    26 ar  
    48    26    27 ar  
    49    26    47 1   
    50    27    28 1   
@<TRIPOS>SUBSTRUCTURE
     1 796         1 TEMP              0 ****  ****    0 ROOT
