@<TRIPOS>MOLECULE
797
   32    35     1     0     0
SMALL
bcc


@<TRIPOS>ATOM
      1 C1         -0.0140   -0.0160   -0.0020 ca        1 797     -0.126900
      2 C2          1.3670    0.0180   -0.0220 ca        1 797     -0.061000
      3 C3          2.1050    0.0460    1.1900 ca        1 797     -0.075000
      4 C4          1.4140    0.0480    2.4280 ca        1 797      0.013000
      5 C5         -0.0080    0.0230    2.4230 ca        1 797     -0.132000
      6 C6         -0.7040   -0.0080    1.2420 ca        1 797     -0.099000
      7 C10         3.5290    0.0750    1.1870 ca        1 797     -0.081000
      8 C11         4.2370    0.1030    2.3590 ca        1 797     -0.143000
      9 C12         3.5310    0.1020    3.5990 ca        1 797      0.140100
     10 C13         2.1510    0.0760    3.6400 ca        1 797     -0.225000
     11 O17         4.3210    0.1300    4.7230 oh        1 797     -0.494100
     12 C18        -0.7800   -0.0540   -1.2370 cc        1 797      0.432500
     13 C19        -2.0320   -0.7960   -1.4540 ca        1 797     -0.250900
     14 C20        -2.3560   -0.4980   -2.8130 ca        1 797      0.085100
     15 O21        -1.3550    0.3500   -3.3250 os        1 797     -0.009600
     16 N22        -0.4550    0.5850   -2.3760 nd        1 797     -0.395200
     17 C23        -2.8640   -1.6420   -0.7270 ca        1 797     -0.028000
     18 C24        -3.9940   -2.1590   -1.3490 ca        1 797     -0.180000
     19 C25        -4.2920   -1.8350   -2.6940 ca        1 797      0.162100
     20 C26        -3.4740   -0.9930   -3.4650 ca        1 797     -0.214000
     21 O30        -5.4350   -2.4010   -3.2010 oh        1 797     -0.490100
     22 H2          1.9170    0.0240   -0.9770 ha        1 797      0.149000
     23 H5         -0.5390    0.0340    3.3870 ha        1 797      0.136000
     24 H6         -1.8050   -0.0160    1.2380 ha        1 797      0.138000
     25 H10         4.0530    0.0760    0.2180 ha        1 797      0.141000
     26 H11         5.3360    0.1260    2.3780 ha        1 797      0.155000
     27 H13         1.6110    0.0770    4.5970 ha        1 797      0.137000
     28 H17         3.7400    0.1320    5.4990 ho        1 797      0.422000
     29 H23        -2.6320   -1.9040    0.3160 ha        1 797      0.150000
     30 H24        -4.6770   -2.8300   -0.8080 ha        1 797      0.158000
     31 H26        -3.7000   -0.7460   -4.5090 ha        1 797      0.160000
     32 H30        -5.5340   -2.1140   -4.1220 ho        1 797      0.426000
@<TRIPOS>BOND
     1    1    2 ar
     2    1    6 ar
     3    1   12 1
     4    2    3 ar
     5    2   22 1
     6    3    4 ar
     7    3    7 ar
     8    4    5 ar
     9    4   10 ar
    10    5    6 ar
    11    5   23 1
    12    6   24 1
    13    7    8 ar
    14    7   25 1
    15    8    9 ar
    16    8   26 1
    17    9   10 ar
    18    9   11 1
    19   10   27 1
    20   11   28 1
    21   12   13 1
    22   12   16 2
    23   13   14 ar
    24   13   17 ar
    25   14   15 1
    26   14   20 ar
    27   15   16 1
    28   17   18 ar
    29   17   29 1
    30   18   19 ar
    31   18   30 1
    32   19   20 ar
    33   19   21 1
    34   20   31 1
    35   21   32 1
@<TRIPOS>SUBSTRUCTURE
     1 797         1 TEMP              0 ****  ****    0 ROOT
