@<TRIPOS>MOLECULE
798
   47    50     1     0     0
SMALL
bcc


@<TRIPOS>ATOM
      1 O8           0.0000     0.0000     0.0000 o          1 798      -0.566100
      2 C7           1.2160     0.0000     0.0000 c          1 798       0.656300
      3 C9           1.9530     0.0000     1.2770 ca         1 798      -0.172600
      4 C10          1.4380     0.6840     2.3830 ca         1 798      -0.059500
      5 C11          2.1220     0.6840     3.5650 ca         1 798      -0.112500
      6 C12          3.3360     0.0010     3.6710 ca         1 798       0.012000
      7 C15          4.0760     0.0020     4.9530 cc         1 798      -0.070000
      8 C16          3.6330     0.6390     6.0520 cd         1 798      -0.021100
      9 S17          4.7270     0.4330     7.3450 ss         1 798      -0.233800
     10 C18          5.7990    -0.5410     6.3510 cd         1 798      -0.004100
     11 C19          5.2900    -0.6660     5.1270 cc         1 798      -0.116000
     12 C13          3.8510    -0.6830     2.5680 ca         1 798      -0.112500
     13 C14          3.1670    -0.6880     1.3850 ca         1 798      -0.059500
     14 C6           1.9540    -0.0090    -1.2780 ca         1 798      -0.229600
     15 C5           1.2650    -0.1720    -2.4840 ca         1 798      -0.017000
     16 C4           1.9570    -0.1800    -3.6740 ca         1 798      -0.196500
     17 C3           3.3390    -0.0230    -3.6780 ca         1 798       0.187100
     18 C2           4.0270     0.1410    -2.4810 ca         1 798      -0.196500
     19 C1           3.3430     0.1550    -1.2870 ca         1 798      -0.017000
     20 O20          4.0170    -0.0300    -4.8530 os         1 798      -0.299900
     21 C21          5.4350     0.1370    -4.7850 c3         1 798       0.208400
     22 C22          6.0210     0.1020    -6.1980 c3         1 798       0.112500
     23 N23          5.8540    -1.2420    -6.7910 n7         1 798      -0.578200
     24 C24          7.0490    -1.5510    -7.5970 c3         1 798       0.145800
     25 C25          8.0080    -0.3490    -7.4730 c3         1 798      -0.041400
     26 C26          7.5530     0.3250    -6.1520 c3         1 798      -0.023400
     27 H10          0.4960     1.2140     2.3020 ha         1 798       0.120500
     28 H11          1.7230     1.2140     4.4220 ha         1 798       0.112000
     29 H16          2.7100     1.2040     6.1090 h4         1 798       0.157000
     30 H18          6.7310    -0.9800     6.6860 h4         1 798       0.149000
     31 H19          5.7760    -1.2250     4.3380 ha         1 798       0.127000
     32 H13          4.7920    -1.2140     2.6510 ha         1 798       0.112000
     33 H14          3.5670    -1.2190     0.5300 ha         1 798       0.120500
     34 H5           0.1890    -0.2950    -2.4820 ha         1 798       0.124000
     35 H4           1.4250    -0.3070    -4.6090 ha         1 798       0.121500
     36 H2           5.1030     0.2650    -2.4890 ha         1 798       0.121500
     37 H1           3.8800     0.2820    -0.3550 ha         1 798       0.124000
     38 H21          5.8650    -0.6650    -4.1960 h1         1 798       0.009200
     39 H21A         5.6650     1.0890    -4.3220 h1         1 798       0.009200
     40 H22          5.5510     0.8500    -6.8260 h1         1 798       0.021700
     41 HN23         5.0440    -1.2500    -7.3790 hn         1 798       0.257800
     42 H24          6.7670    -1.6900    -8.6340 h1         1 798       0.013200
     43 H24A         7.5280    -2.4450    -7.2160 h1         1 798       0.013200
     44 H25          7.8820     0.3280    -8.3090 hc         1 798       0.020700
     45 H25A         9.0340    -0.6860    -7.3940 hc         1 798       0.020700
     46 H26          7.9890    -0.1730    -5.2940 hc         1 798       0.024200
     47 H26A         7.7880     1.3830    -6.1580 hc         1 798       0.024200
@<TRIPOS>BOND
     1     1     2 2   
     2     2     3 1   
     3     2    14 1   
     4     3     4 ar  
     5     3    13 ar  
     6     4     5 ar  
     7     4    27 1   
     8     5     6 ar  
     9     5    28 1   
    10     6     7 1   
    11     6    12 ar  
    12     7     8 2   
    13     7    11 1   
    14     8     9 1   
    15     8    29 1   
    16     9    10 1   
    17    10    11 2   
    18    10    30 1   
    19    11    31 1   
    20    12    13 ar  
    21    12    32 1   
    22    13    33 1   
    23    14    15 ar  
    24    14    19 ar  
    25    15    16 ar  
    26    15    34 1   
    27    16    17 ar  
    28    16    35 1   
    29    17    18 ar  
    30    17    20 1   
    31    18    19 ar  
    32    18    36 1   
    33    19    37 1   
    34    20    21 1   
    35    21    22 1   
    36    21    38 1   
    37    21    39 1   
    38    22    23 1   
    39    22    26 1   
    40    22    40 1   
    41    23    24 1   
    42    23    41 1   
    43    24    25 1   
    44    24    42 1   
    45    24    43 1   
    46    25    26 1   
    47    25    44 1   
    48    25    45 1   
    49    26    46 1   
    50    26    47 1   
@<TRIPOS>SUBSTRUCTURE
     1 798         1 TEMP              0 ****  ****    0 ROOT
