@<TRIPOS>MOLECULE
molecule
   63    67     1     0     0
SMALL
bcc


@<TRIPOS>ATOM
      1 C2           0.0000     0.0000     0.0000 c          1 799       0.461100
      2 C4           1.5070     0.0000     0.0000 c3         1 799       0.033700
      3 C5           2.0170     0.0000     1.4430 c3         1 799      -0.112100
      4 C6           2.0160    -1.2500    -0.7220 c3         1 799      -0.112100
      5 C8           1.5310     2.4500    -0.5230 cc         1 799      -0.106300
      6 C12          2.0730     4.7360    -1.4930 ca         1 799       0.003000
      7 C16          3.0870     7.9970    -4.5860 c3         1 799       0.136400
      8 C17          1.6650     8.5570    -4.5030 c3         1 799       0.001300
      9 C19          1.3580    10.7450    -3.2310 cd         1 799      -0.181600
     10 C23          1.7180     7.4640    -1.7740 ca         1 799      -0.128500
     11 C24          0.9240     6.7570    -0.8830 ca         1 799      -0.073000
     12 C32          1.0210    11.7600     1.1100 c3         1 799       0.063000
     13 C33          2.1940    12.1290     2.0180 c3         1 799      -0.103100
     14 C34         -0.2840    11.8330     1.9050 c3         1 799      -0.103100
     15 N1          -0.6740    -1.0100     0.5840 nz         1 799      -0.682400
     16 O3          -0.6060     0.9130    -0.5200 o          1 799      -0.376100
     17 N7           1.9950     1.1960    -0.6900 na         1 799       0.036400
     18 C9           2.2450     3.2690    -1.3490 cd         1 799      -0.210300
     19 C10          3.1750     2.4680    -2.0390 cd         1 799       0.380200
     20 N11          3.0260     1.2330    -1.6380 nc         1 799      -0.499800
     21 C13          2.8800     5.4440    -2.3830 ca         1 799      -0.136000
     22 C14          2.7210     6.8070    -2.5160 ca         1 799       0.137100
     23 O15          3.5290     7.5510    -3.3040 os         1 799      -0.341900
     24 N18          1.5240     9.4010    -3.3180 na         1 799      -0.186900
     25 C20          1.2580    11.0450    -1.9030 cc         1 799       0.272300
     26 N21          1.3680     9.8950    -1.2010 nc         1 799      -0.670000
     27 C22          1.5320     8.9080    -2.0330 cd         1 799       0.456000
     28 C25          1.1010     5.3970    -0.7430 ca         1 799      -0.137000
     29 C26          1.0640    12.3950    -1.3310 cc         1 799       0.440500
     30 N27          0.9560    13.5190    -2.0110 nd         1 799      -0.772000
     31 C28          0.7910    14.5380    -1.1710 cd         1 799       0.572300
     32 C29          0.6290    15.9820    -1.5720 c3         1 799      -0.095400
     33 N30          0.7890    14.0890     0.0570 nc         1 799      -0.545800
     34 N31          0.9600    12.6960    -0.0150 na         1 799      -0.040400
     35 H1           1.9800    -1.0080     1.8390 hc         1 799       0.073867
     36 H2           1.3930     0.6480     2.0460 hc         1 799       0.073867
     37 H3           3.0380     0.3600     1.4640 hc         1 799       0.073867
     38 H4           3.0990    -1.2330    -0.7520 hc         1 799       0.073867
     39 H5           1.6840    -2.1340    -0.1910 hc         1 799       0.073867
     40 H6           1.6270    -1.2670    -1.7320 hc         1 799       0.073867
     41 H7           0.8100     2.7690     0.2200 h4         1 799       0.177000
     42 H8           3.0700     7.1410    -5.2490 h1         1 799       0.072200
     43 H9           3.7430     8.7990    -4.9040 h1         1 799       0.072200
     44 H10          0.9810     7.7230    -4.4030 h1         1 799       0.077700
     45 H11          1.4970     9.1760    -5.3760 h1         1 799       0.077700
     46 H12          1.3110    11.4440    -4.0570 h4         1 799       0.203000
     47 H13          0.1690     7.2710    -0.3010 ha         1 799       0.157000
     48 H14          1.1440    10.7430     0.7560 h1         1 799       0.104700
     49 H15          3.0900    12.2470     1.4200 hc         1 799       0.046867
     50 H16          2.3470    11.3420     2.7470 hc         1 799       0.046867
     51 H17          1.9760    13.0580     2.5290 hc         1 799       0.046867
     52 H18         -0.3520    12.7940     2.3990 hc         1 799       0.046867
     53 H19         -1.1240    11.7120     1.2320 hc         1 799       0.046867
     54 H20         -0.2990    11.0430     2.6470 hc         1 799       0.046867
     55 H21         -0.6330    -1.8210    -0.0010 hn         1 799       0.480467
     56 H22         -0.2600    -1.2180     1.4710 hn         1 799       0.480467
     57 H23          3.8950     2.8160    -2.7710 h4         1 799       0.075100
     58 H24          3.6890     4.9400    -2.8980 ha         1 799       0.145000
     59 H25          0.4880     4.8420    -0.0430 ha         1 799       0.124000
     60 H26          0.7250    16.6120    -0.6960 hc         1 799       0.056700
     61 H27         -0.3480    16.1260    -2.0160 hc         1 799       0.056700
     62 H28          1.3950    16.2450    -2.2910 hc         1 799       0.056700
     63 H131        -1.6290    -0.7420     0.7150 hn         1 799       0.480467
@<TRIPOS>BOND
     1    14    12 1   
     2    32    31 1   
     3    33    31 2   
     4    33    34 1   
     5    31    30 1   
     6    30    29 2   
     7    34    12 1   
     8    34    29 1   
     9    12    13 1   
    10    29    25 1   
    11    25     9 2   
    12    25    26 1   
    13     9    24 1   
    14    26    27 2   
    15    24    27 1   
    16    24     8 1   
    17    27    10 1   
    18     8     7 1   
    19    10    22 ar  
    20    10    11 ar  
    21    23    22 1   
    22    23     7 1   
    23    22    21 ar  
    24    11    28 ar  
    25    21     6 ar  
    26    28     6 ar  
    27     6    18 1   
    28    18    19 1   
    29    18     5 2   
    30    19    20 2   
    31     3     2 1   
    32     5    17 1   
    33    20    17 1   
    34    17     2 1   
    35     2     1 1   
    36     2     4 1   
    37    16     1 2   
    38     1    15 1   
    39     3    35 1   
    40     3    36 1   
    41     3    37 1   
    42     4    38 1   
    43     4    39 1   
    44     4    40 1   
    45     5    41 1   
    46     7    42 1   
    47     7    43 1   
    48     8    44 1   
    49     8    45 1   
    50     9    46 1   
    51    11    47 1   
    52    12    48 1   
    53    13    49 1   
    54    13    50 1   
    55    13    51 1   
    56    14    52 1   
    57    14    53 1   
    58    14    54 1   
    59    15    55 1   
    60    15    56 1   
    61    19    57 1   
    62    21    58 1   
    63    28    59 1   
    64    32    60 1   
    65    32    61 1   
    66    32    62 1   
    67    63    15 1   
@<TRIPOS>SUBSTRUCTURE
     1 799         1 TEMP              0 ****  ****    0 ROOT
