@<TRIPOS>MOLECULE
799
   63    67     1     0     0
SMALL
bcc


@<TRIPOS>ATOM
      1 C2           0.0000     0.0000     0.0000 c          1 799       0.297100
      2 C4           1.5070     0.0000     0.0000 c3         1 799      -0.102300
      3 C5           2.0170     0.0000     1.4430 c3         1 799      -0.012100
      4 C6           2.0160    -1.2500    -0.7220 c3         1 799      -0.012100
      5 C8           1.5310     2.4500    -0.5230 cc         1 799      -0.249300
      6 C12          2.0730     4.7360    -1.4930 ca         1 799       0.005000
      7 C16          3.0870     7.9970    -4.5860 c3         1 799       0.214400
      8 C17          1.6650     8.5570    -4.5030 c3         1 799      -0.090700
      9 C19          1.3580    10.7450    -3.2310 cc         1 799      -0.341600
     10 C23          1.7180     7.4640    -1.7740 ca         1 799      -0.126500
     11 C24          0.9240     6.7570    -0.8830 ca         1 799      -0.046000
     12 C32          1.0210    11.7600     1.1100 c3         1 799      -0.064000
     13 C33          2.1940    12.1290     2.0180 c3         1 799      -0.006100
     14 C34         -0.2840    11.8330     1.9050 c3         1 799      -0.006100
     15 N1          -0.6740    -1.0100     0.5840 nz         1 799       0.192600
     16 O3          -0.6060     0.9130    -0.5200 o          1 799      -0.376100
     17 N7           1.9950     1.1960    -0.6900 na         1 799       0.445400
     18 C9           2.2450     3.2690    -1.3490 cd         1 799      -0.203300
     19 C10          3.1750     2.4680    -2.0390 cd         1 799       0.442200
     20 N11          3.0260     1.2330    -1.6380 nc         1 799      -0.633800
     21 C13          2.8800     5.4440    -2.3830 ca         1 799      -0.114000
     22 C14          2.7210     6.8070    -2.5160 ca         1 799       0.135100
     23 O15          3.5290     7.5510    -3.3040 os         1 799      -0.326900
     24 N18          1.5240     9.4010    -3.3180 na         1 799       0.292100
     25 C20          1.2580    11.0450    -1.9030 cd         1 799       0.247300
     26 N21          1.3680     9.8950    -1.2010 nd         1 799      -0.584000
     27 C22          1.5320     8.9080    -2.0330 cc         1 799       0.260000
     28 C25          1.1010     5.3970    -0.7430 ca         1 799      -0.113000
     29 C26          1.0640    12.3950    -1.3310 cd         1 799       0.267500
     30 N27          0.9560    13.5190    -2.0110 nc         1 799      -0.705000
     31 C28          0.7910    14.5380    -1.1710 cc         1 799       0.570300
     32 C29          0.6290    15.9820    -1.5720 c3         1 799       0.006600
     33 N30          0.7890    14.0890     0.0570 nd         1 799      -0.684800
     34 N31          0.9600    12.6960    -0.0150 na         1 799       0.378600
     35 H1           1.9800    -1.0080     1.8390 hc         1 799       0.037200
     36 H2           1.3930     0.6480     2.0460 hc         1 799       0.037200
     37 H3           3.0380     0.3600     1.4640 hc         1 799       0.037200
     38 H4           3.0990    -1.2330    -0.7520 hc         1 799       0.037200
     39 H5           1.6840    -2.1340    -0.1910 hc         1 799       0.037200
     40 H6           1.6270    -1.2670    -1.7320 hc         1 799       0.037200
     41 H7           0.8100     2.7690     0.2200 h4         1 799       0.153000
     42 H8           3.0700     7.1410    -5.2490 h1         1 799       0.028700
     43 H9           3.7430     8.7990    -4.9040 h1         1 799       0.028700
     44 H10          0.9810     7.7230    -4.4030 h1         1 799       0.049200
     45 H11          1.4970     9.1760    -5.3760 h1         1 799       0.049200
     46 H12          1.3110    11.4440    -4.0570 h4         1 799       0.175000
     47 H13          0.1690     7.2710    -0.3010 ha         1 799       0.123000
     48 H14          1.1440    10.7430     0.7560 h1         1 799       0.082700
     49 H15          3.0900    12.2470     1.4200 hc         1 799       0.014700
     50 H16          2.3470    11.3420     2.7470 hc         1 799       0.014700
     51 H17          1.9760    13.0580     2.5290 hc         1 799       0.014700
     52 H18         -0.3520    12.7940     2.3990 hc         1 799       0.014700
     53 H19         -1.1240    11.7120     1.2320 hc         1 799       0.014700
     54 H20         -0.2990    11.0430     2.6470 hc         1 799       0.014700
     55 H21         -0.6330    -1.8210    -0.0010 hn         1 799       0.252133
     56 H22         -0.2600    -1.2180     1.4710 hn         1 799       0.252133
     57 H23          3.8950     2.8160    -2.7710 h4         1 799       0.025100
     58 H24          3.6890     4.9400    -2.8980 ha         1 799       0.121000
     59 H25          0.4880     4.8420    -0.0430 ha         1 799       0.099000
     60 H26          0.7250    16.6120    -0.6960 hc         1 799       0.014700
     61 H27         -0.3480    16.1260    -2.0160 hc         1 799       0.014700
     62 H28          1.3950    16.2450    -2.2910 hc         1 799       0.014700
     63 H131        -1.6290    -0.7420     0.7150 hn         1 799       0.252133
@<TRIPOS>BOND
     1     1     2 1   
     2     1    15 1   
     3     1    16 2   
     4     2     3 1   
     5     2     4 1   
     6     2    17 1   
     7     3    35 1   
     8     3    36 1   
     9     3    37 1   
    10     4    38 1   
    11     4    39 1   
    12     4    40 1   
    13     5    17 1   
    14     5    18 2   
    15     5    41 1   
    16     6    18 1   
    17     6    21 ar  
    18     6    28 ar  
    19     7     8 1   
    20     7    23 1   
    21     7    42 1   
    22     7    43 1   
    23     8    24 1   
    24     8    44 1   
    25     8    45 1   
    26     9    24 1   
    27     9    25 2   
    28     9    46 1   
    29    10    11 ar  
    30    10    22 ar  
    31    10    27 1   
    32    11    28 ar  
    33    11    47 1   
    34    12    13 1   
    35    12    14 1   
    36    12    34 1   
    37    12    48 1   
    38    13    49 1   
    39    13    50 1   
    40    13    51 1   
    41    14    52 1   
    42    14    53 1   
    43    14    54 1   
    44    15    55 1   
    45    15    56 1   
    46    15    63 1   
    47    17    20 1   
    48    18    19 1   
    49    19    20 2   
    50    19    57 1   
    51    21    22 ar  
    52    21    58 1   
    53    22    23 1   
    54    24    27 1   
    55    25    26 1   
    56    25    29 1   
    57    26    27 2   
    58    28    59 1   
    59    29    30 2   
    60    29    34 1   
    61    30    31 1   
    62    31    32 1   
    63    31    33 2   
    64    32    60 1   
    65    32    61 1   
    66    32    62 1   
    67    33    34 1   
@<TRIPOS>SUBSTRUCTURE
     1 799         1 TEMP              0 ****  ****    0 ROOT
