@<TRIPOS>MOLECULE
79A
   38    40     1     0     0
SMALL
bcc


@<TRIPOS>ATOM
      1 N1          -1.2790     0.0160    -2.2270 n1         1 79A      -0.347800
      2 C17         -0.7190    -0.0010    -1.2400 cg         1 79A       0.213800
      3 C6           0.0000     0.0000     0.0000 ca         1 79A       0.082000
      4 C7           1.3950     0.0000     0.0000 ca         1 79A      -0.122000
      5 C8           2.0840     0.0000     1.2020 ca         1 79A       0.132100
      6 C9           1.3870     0.0010     2.4020 ca         1 79A      -0.134000
      7 C10          0.0020     0.0000     2.4050 ca         1 79A       0.128900
      8 F1          -0.6690     0.0010     3.5770 f          1 79A      -0.116900
      9 C5          -0.6940     0.0060     1.2110 ca         1 79A      -0.116000
     10 O1           3.4430     0.0010     1.2060 os         1 79A      -0.215200
     11 C1           4.0820     1.1100     0.7500 ca         1 79A       0.206100
     12 C14          5.4640     1.1050     0.6080 ca         1 79A      -0.156300
     13 C15          6.4750     0.0130     0.8870 c3         1 79A       0.012900
     14 C11          7.7520     0.4440     0.1340 c3         1 79A       0.334600
     15 F3           7.7770    -0.1000    -1.1550 f          1 79A      -0.204300
     16 F2           8.8980     0.0820     0.8500 f          1 79A      -0.204300
     17 C13          6.1110     2.2340     0.1450 ca         1 79A       0.026700
     18 C12          7.6020     1.9790     0.0790 c3         1 79A       0.181400
     19 O4           8.1380     2.4860    -1.1430 oh         1 79A      -0.506800
     20 C4           5.3800     3.3660    -0.1770 ca         1 79A      -0.141500
     21 S1           6.2060     4.8050    -0.7670 sy         1 79A       0.869300
     22 C16          7.2260     5.3480     0.6320 c3         1 79A       0.015700
     23 O3           7.0250     4.3290    -1.8270 o          1 79A      -0.570300
     24 O2           5.1600     5.7350    -1.0120 o          1 79A      -0.570300
     25 C3           4.0050     3.3710    -0.0350 ca         1 79A       0.049000
     26 C2           3.3530     2.2430     0.4220 ca         1 79A      -0.225000
     27 H1           1.9380    -0.0010    -0.9370 ha         1 79A       0.137000
     28 H2           1.9290     0.0010     3.3400 ha         1 79A       0.136000
     29 H3          -1.7780     0.0060     1.2150 ha         1 79A       0.134000
     30 H4           6.6720    -0.0520     1.9510 hc         1 79A       0.050200
     31 H5           6.1170    -0.9350     0.5050 hc         1 79A       0.050200
     32 H6           8.0960     2.4330     0.9300 h1         1 79A       0.029700
     33 H7           9.0720     2.3560    -1.1550 ho         1 79A       0.389000
     34 H8           8.2470     5.0180     0.4840 h1         1 79A       0.061033
     35 H9           7.2020     6.4290     0.6980 h1         1 79A       0.061033
     36 H10          6.8380     4.9220     1.5490 h1         1 79A       0.061033
     37 H11          3.4380     4.2580    -0.2920 ha         1 79A       0.138000
     38 H12          2.2760     2.2460     0.5330 ha         1 79A       0.132000
@<TRIPOS>BOND
     1     1     2 3   
     2     2     3 1   
     3     3     4 ar  
     4     3     9 ar  
     5     4     5 ar  
     6     4    27 1   
     7     5     6 ar  
     8     5    10 1   
     9     6     7 ar  
    10     6    28 1   
    11     7     8 1   
    12     7     9 ar  
    13     9    29 1   
    14    10    11 1   
    15    11    12 ar  
    16    11    26 ar  
    17    12    13 1   
    18    12    17 ar  
    19    13    14 1   
    20    13    30 1   
    21    13    31 1   
    22    14    15 1   
    23    14    16 1   
    24    14    18 1   
    25    17    18 1   
    26    17    20 ar  
    27    18    19 1   
    28    18    32 1   
    29    19    33 1   
    30    20    21 1   
    31    20    25 ar  
    32    21    22 1   
    33    21    23 2   
    34    21    24 2   
    35    22    34 1   
    36    22    35 1   
    37    22    36 1   
    38    25    26 ar  
    39    25    37 1   
    40    26    38 1   
@<TRIPOS>SUBSTRUCTURE
     1 79A         1 TEMP              0 ****  ****    0 ROOT
