@<TRIPOS>MOLECULE
molecule
   38    40     1     0     0
SMALL
bcc


@<TRIPOS>ATOM
      1 N1          -1.2790     0.0160    -2.2270 n1         1 79A      -0.331800
      2 C17         -0.7190    -0.0010    -1.2400 cg         1 79A       0.229800
      3 C6           0.0000     0.0000     0.0000 ca         1 79A       0.027000
      4 C7           1.3950     0.0000     0.0000 ca         1 79A      -0.133000
      5 C8           2.0840     0.0000     1.2020 ca         1 79A       0.121100
      6 C9           1.3870     0.0010     2.4020 ca         1 79A      -0.157000
      7 C10          0.0020     0.0000     2.4050 ca         1 79A       0.148900
      8 F1          -0.6690     0.0010     3.5770 f          1 79A      -0.124900
      9 C5          -0.6940     0.0060     1.2110 ca         1 79A      -0.137000
     10 O1           3.4430     0.0010     1.2060 os         1 79A      -0.238200
     11 C1           4.0820     1.1100     0.7500 ca         1 79A       0.196100
     12 C14          5.4640     1.1050     0.6080 ca         1 79A      -0.129300
     13 C15          6.4750     0.0130     0.8870 c3         1 79A      -0.062100
     14 C11          7.7520     0.4440     0.1340 c3         1 79A       0.370600
     15 F3           7.7770    -0.1000    -1.1550 f          1 79A      -0.216800
     16 F2           8.8980     0.0820     0.8500 f          1 79A      -0.216800
     17 C13          6.1110     2.2340     0.1450 ca         1 79A       0.032700
     18 C12          7.6020     1.9790     0.0790 c3         1 79A       0.132400
     19 O4           8.1380     2.4860    -1.1430 oh         1 79A      -0.536800
     20 C4           5.3800     3.3660    -0.1770 ca         1 79A      -0.285500
     21 S1           6.2060     4.8050    -0.7670 sy         1 79A       1.191300
     22 C16          7.2260     5.3480     0.6320 c3         1 79A      -0.234300
     23 O3           7.0250     4.3290    -1.8270 o          1 79A      -0.599800
     24 O2           5.1600     5.7350    -1.0120 o          1 79A      -0.599800
     25 C3           4.0050     3.3710    -0.0350 ca         1 79A       0.010000
     26 C2           3.3530     2.2430     0.4220 ca         1 79A      -0.222000
     27 H1           1.9380    -0.0010    -0.9370 ha         1 79A       0.165000
     28 H2           1.9290     0.0010     3.3400 ha         1 79A       0.166000
     29 H3          -1.7780     0.0060     1.2150 ha         1 79A       0.164000
     30 H4           6.6720    -0.0520     1.9510 hc         1 79A       0.086200
     31 H5           6.1170    -0.9350     0.5050 hc         1 79A       0.086200
     32 H6           8.0960     2.4330     0.9300 h1         1 79A       0.066700
     33 H7           9.0720     2.3560    -1.1550 ho         1 79A       0.412000
     34 H8           8.2470     5.0180     0.4840 h1         1 79A       0.098367
     35 H9           7.2020     6.4290     0.6980 h1         1 79A       0.098367
     36 H10          6.8380     4.9220     1.5490 h1         1 79A       0.098367
     37 H11          3.4380     4.2580    -0.2920 ha         1 79A       0.171000
     38 H12          2.2760     2.2460     0.5330 ha         1 79A       0.154000
@<TRIPOS>BOND
     1    15    14 1   
     2    16    14 1   
     3    14    13 1   
     4    14    18 1   
     5    13    12 1   
     6    10     5 1   
     7    10    11 1   
     8    18    19 1   
     9    18    17 1   
    10     6     5 ar  
    11     6     7 ar  
    12    12    11 ar  
    13    12    17 ar  
    14     5     4 ar  
    15     8     7 1   
    16     7     9 ar  
    17    11    26 ar  
    18    17    20 ar  
    19     4     3 ar  
    20     9     3 ar  
    21     3     2 1   
    22    26    25 ar  
    23    24    21 2   
    24    20    25 ar  
    25    20    21 1   
    26     2     1 3   
    27    21    22 1   
    28    21    23 2   
    29     4    27 1   
    30     6    28 1   
    31     9    29 1   
    32    13    30 1   
    33    13    31 1   
    34    18    32 1   
    35    19    33 1   
    36    22    34 1   
    37    22    35 1   
    38    22    36 1   
    39    25    37 1   
    40    26    38 1   
@<TRIPOS>SUBSTRUCTURE
     1 79A         1 TEMP              0 ****  ****    0 ROOT
