@<TRIPOS>MOLECULE
79C
   74    78     1     0     0
SMALL
bcc


@<TRIPOS>ATOM
      1 C4           0.0000     0.0000     0.0000 ca         1 79C      -0.124000
      2 C5           1.3980     0.0000     0.0000 ca         1 79C      -0.135600
      3 C6           2.0950     0.0000     1.2120 ca         1 79C      -0.101000
      4 C7           1.4040     0.0000     2.4030 ca         1 79C      -0.106000
      5 C8           0.0130    -0.0000     2.4040 ca         1 79C      -0.020400
      6 C10         -0.0850     0.5080     4.7560 ca         1 79C       0.700900
      7 C13          1.0850     1.4830     6.9560 ca         1 79C      -0.439000
      8 C21         -0.2960    -0.2840     9.0940 c3         1 79C       0.101800
      9 C24         -1.4870     3.1800     8.0830 c3         1 79C      -0.023900
     10 C26         -2.3850     3.3770    10.3430 c3         1 79C      -0.020400
     11 C28         -0.1740     0.8760     7.0260 ca         1 79C       0.560200
     12 C3          -0.6870     0.0050     1.1970 ca         1 79C       0.106100
     13 N9          -0.6830    -0.0010     3.6130 nu         1 79C      -0.247300
     14 N11          1.0960     1.0970     4.6560 nb         1 79C      -0.677000
     15 C12          1.7060     1.5920     5.7260 ca         1 79C       0.500200
     16 N14          1.6940     1.9590     8.1270 n          1 79C       0.027000
     17 C16          1.7490     1.1370     9.1980 c          1 79C       0.566500
     18 O17          2.2090     1.5310    10.2490 o          1 79C      -0.621500
     19 C18          1.2300    -0.2710     9.0750 c3         1 79C       0.289600
     20 F19          1.6820    -0.8210     7.8710 f          1 79C      -0.203800
     21 F20          1.7110    -1.0350    10.1440 f          1 79C      -0.203800
     22 N22         -0.8330     0.7940     8.2390 nh         1 79C      -0.471300
     23 C23         -0.8140     2.0830     8.9430 c3         1 79C       0.051500
     24 C25         -1.9200     4.2260     9.1410 c3         1 79C      -0.020400
     25 C27         -1.6810     2.0150    10.2180 c3         1 79C      -0.023900
     26 N29         -0.7170     0.3940     5.9160 nb         1 79C      -0.632000
     27 C30          2.1380     0.0000    -1.2770 c          1 79C       0.599700
     28 O31          1.5320    -0.0010    -2.3300 o          1 79C      -0.658100
     29 N32          3.4850     0.0000    -1.2750 ns         1 79C      -0.190900
     30 C33          4.2200    -0.0000    -2.5420 c3         1 79C       0.015700
     31 C34          5.6090     0.6080    -2.3300 c3         1 79C      -0.040900
     32 C35          6.3930     0.5480    -3.6420 c3         1 79C       0.162300
     33 N36          6.5110    -0.8470    -4.0810 n3         1 79C      -0.548600
     34 C37          7.3750    -0.9560    -5.2650 c3         1 79C       0.189100
     35 C38          5.1910    -1.4380    -4.3380 c3         1 79C       0.162300
     36 C39          4.3700    -1.4380    -3.0460 c3         1 79C      -0.040900
     37 H1          -0.5430     0.0020    -0.9380 ha         1 79C       0.146000
     38 H2           3.1780     0.0000     1.2140 ha         1 79C       0.104000
     39 H3           1.9450    -0.0020     3.3420 ha         1 79C       0.154000
     40 H4           2.0940     3.7260     9.1730 h1         1 79C       0.023700
     41 H5           3.3210     3.2670     7.9850 h1         1 79C       0.023700
     42 H6           1.7750     3.9360     7.4460 h1         1 79C       0.023700
     43 H7          -0.6410    -0.1380    10.1100 h1         1 79C       0.066700
     44 H8          -0.6480    -1.2400     8.7250 h1         1 79C       0.066700
     45 H9          -2.3510     2.7830     7.5630 hc         1 79C       0.026200
     46 H10         -0.7770     3.6110     7.3880 hc         1 79C       0.026200
     47 H11         -2.0950     3.8590    11.2690 hc         1 79C       0.016200
     48 H12         -3.4590     3.2430    10.3080 hc         1 79C       0.016200
     49 H13         -2.4050     0.8950    -0.6250 h1         1 79C       0.002033
     50 H14         -2.4040    -0.8740    -0.6230 h1         1 79C       0.002033
     51 H15         -3.7740     0.0100     0.0640 h1         1 79C       0.002033
     52 H16         -1.5950    -0.4090     3.6640 hn         1 79C       0.304800
     53 H17          2.6730     2.0730     5.6370 h4         1 79C      -0.008900
     54 H18          0.2000     2.3700     9.1930 h1         1 79C       0.055700
     55 H19         -2.7390     4.8270     8.7640 hc         1 79C       0.016200
     56 H20         -1.0800     4.8500     9.4210 hc         1 79C       0.016200
     57 H21         -1.0530     1.8430    11.0830 hc         1 79C       0.026200
     58 H22         -2.4170     1.2260    10.1220 hc         1 79C       0.026200
     59 H23          3.9840     0.0220    -0.4070 hn         1 79C       0.180500
     60 H24          3.6810     0.5840    -3.2780 h1         1 79C       0.056700
     61 H25          6.1360     0.0440    -1.5690 hc         1 79C       0.026450
     62 H26          5.5070     1.6400    -2.0170 hc         1 79C       0.026450
     63 H27          7.3820     0.9620    -3.4890 h1         1 79C       0.010450
     64 H28          5.8700     1.1200    -4.3990 h1         1 79C       0.010450
     65 H30          7.4750    -1.9980    -5.5440 h1         1 79C       0.000367
     66 H31          8.3520    -0.5480    -5.0370 h1         1 79C       0.000367
     67 H32          6.9350    -0.4030    -6.0850 h1         1 79C       0.000367
     68 H33          4.6760    -0.8540    -5.0910 h1         1 79C       0.010450
     69 H34          5.3150    -2.4560    -4.6850 h1         1 79C       0.010450
     70 H35          4.8780    -2.0320    -2.2960 hc         1 79C       0.026450
     71 H36          3.3900    -1.8560    -3.2420 hc         1 79C       0.026450
     72 O2          -2.0480     0.0060     1.2000 os         1 79C      -0.319900
     73 C15          2.2580     3.3100     8.1860 c3         1 79C       0.069300
     74 C1          -2.6990     0.0110    -0.0720 c3         1 79C       0.246700
@<TRIPOS>BOND
     1     1     2 ar  
     2     1    12 ar  
     3     1    37 1   
     4     2     3 ar  
     5     2    27 1   
     6     3     4 ar  
     7     3    38 1   
     8     4     5 ar  
     9     4    39 1   
    10     5    12 ar  
    11     5    13 1   
    12     6    13 1   
    13     6    14 ar  
    14     6    26 ar  
    15     7    11 ar  
    16     7    15 ar  
    17     7    16 1   
    18     8    19 1   
    19     8    22 1   
    20     8    43 1   
    21     8    44 1   
    22     9    23 1   
    23     9    24 1   
    24     9    45 1   
    25     9    46 1   
    26    10    24 1   
    27    10    25 1   
    28    10    47 1   
    29    10    48 1   
    30    11    22 1   
    31    11    26 ar  
    32    12    72 1   
    33    13    52 1   
    34    14    15 ar  
    35    15    53 1   
    36    16    17 1   
    37    16    73 1   
    38    17    18 2   
    39    17    19 1   
    40    19    20 1   
    41    19    21 1   
    42    22    23 1   
    43    23    25 1   
    44    23    54 1   
    45    24    55 1   
    46    24    56 1   
    47    25    57 1   
    48    25    58 1   
    49    27    28 2   
    50    27    29 1   
    51    29    30 1   
    52    29    59 1   
    53    30    31 1   
    54    30    36 1   
    55    30    60 1   
    56    31    32 1   
    57    31    61 1   
    58    31    62 1   
    59    32    33 1   
    60    32    63 1   
    61    32    64 1   
    62    33    34 1   
    63    33    35 1   
    64    34    65 1   
    65    34    66 1   
    66    34    67 1   
    67    35    36 1   
    68    35    68 1   
    69    35    69 1   
    70    36    70 1   
    71    36    71 1   
    72    40    73 1   
    73    41    73 1   
    74    42    73 1   
    75    49    74 1   
    76    50    74 1   
    77    51    74 1   
    78    72    74 1   
@<TRIPOS>SUBSTRUCTURE
     1 79C         1 TEMP              0 ****  ****    0 ROOT
