@<TRIPOS>MOLECULE
molecule
   74    78     1     0     0
SMALL
bcc


@<TRIPOS>ATOM
      1 C4           0.0000     0.0000     0.0000 ca         1 79C      -0.141000
      2 C5           1.3980     0.0000     0.0000 ca         1 79C      -0.135600
      3 C6           2.0950     0.0000     1.2120 ca         1 79C      -0.123000
      4 C7           1.4040     0.0000     2.4030 ca         1 79C      -0.121000
      5 C8           0.0130    -0.0000     2.4040 ca         1 79C       0.156600
      6 C10         -0.0850     0.5080     4.7560 ca         1 79C       0.940900
      7 C13          1.0850     1.4830     6.9560 ca         1 79C      -0.297000
      8 C21         -0.2960    -0.2840     9.0940 c3         1 79C       0.138800
      9 C24         -1.4870     3.1800     8.0830 c3         1 79C      -0.079400
     10 C26         -2.3850     3.3770    10.3430 c3         1 79C      -0.081400
     11 C28         -0.1740     0.8760     7.0260 ca         1 79C       0.682200
     12 C3          -0.6870     0.0050     1.1970 ca         1 79C       0.092100
     13 N9          -0.6830    -0.0010     3.6130 nu         1 79C      -0.731300
     14 N11          1.0960     1.0970     4.6560 nb         1 79C      -0.781000
     15 C12          1.7060     1.5920     5.7260 ca         1 79C       0.497200
     16 N14          1.6940     1.9590     8.1270 n          1 79C      -0.377000
     17 C16          1.7490     1.1370     9.1980 c          1 79C       0.662500
     18 O17          2.2090     1.5310    10.2490 o          1 79C      -0.585500
     19 C18          1.2300    -0.2710     9.0750 c3         1 79C       0.305600
     20 F19          1.6820    -0.8210     7.8710 f          1 79C      -0.212300
     21 F20          1.7110    -1.0350    10.1440 f          1 79C      -0.212300
     22 N22         -0.8330     0.7940     8.2390 nh         1 79C      -0.705300
     23 C23         -0.8140     2.0830     8.9430 c3         1 79C       0.140500
     24 C25         -1.9200     4.2260     9.1410 c3         1 79C      -0.081400
     25 C27         -1.6810     2.0150    10.2180 c3         1 79C      -0.079400
     26 N29         -0.7170     0.3940     5.9160 nb         1 79C      -0.750000
     27 C30          2.1380     0.0000    -1.2770 c          1 79C       0.677700
     28 O31          1.5320    -0.0010    -2.3300 o          1 79C      -0.618100
     29 N32          3.4850     0.0000    -1.2750 ns         1 79C      -0.578900
     30 C33          4.2200    -0.0000    -2.5420 c3         1 79C       0.115700
     31 C34          5.6090     0.6080    -2.3300 c3         1 79C      -0.093400
     32 C35          6.3930     0.5480    -3.6420 c3         1 79C       0.166300
     33 N36          6.5110    -0.8470    -4.0810 n3         1 79C      -0.734600
     34 C37          7.3750    -0.9560    -5.2650 c3         1 79C       0.153100
     35 C38          5.1910    -1.4380    -4.3380 c3         1 79C       0.166300
     36 C39          4.3700    -1.4380    -3.0460 c3         1 79C      -0.093400
     37 H1          -0.5430     0.0020    -0.9380 ha         1 79C       0.165000
     38 H2           3.1780     0.0000     1.2140 ha         1 79C       0.128000
     39 H3           1.9450    -0.0020     3.3420 ha         1 79C       0.178000
     40 H4           2.0940     3.7260     9.1730 h1         1 79C       0.054367
     41 H5           3.3210     3.2670     7.9850 h1         1 79C       0.054367
     42 H6           1.7750     3.9360     7.4460 h1         1 79C       0.054367
     43 H7          -0.6410    -0.1380    10.1100 h1         1 79C       0.098200
     44 H8          -0.6480    -1.2400     8.7250 h1         1 79C       0.098200
     45 H9          -2.3510     2.7830     7.5630 hc         1 79C       0.055950
     46 H10         -0.7770     3.6110     7.3880 hc         1 79C       0.055950
     47 H11         -2.0950     3.8590    11.2690 hc         1 79C       0.046950
     48 H12         -3.4590     3.2430    10.3080 hc         1 79C       0.046950
     49 H13         -2.4050     0.8950    -0.6250 h1         1 79C       0.045700
     50 H14         -2.4040    -0.8740    -0.6230 h1         1 79C       0.045700
     51 H15         -3.7740     0.0100     0.0640 h1         1 79C       0.045700
     52 H16         -1.5950    -0.4090     3.6640 hn         1 79C       0.482800
     53 H17          2.6730     2.0730     5.6370 h4         1 79C       0.038100
     54 H18          0.2000     2.3700     9.1930 h1         1 79C       0.064700
     55 H19         -2.7390     4.8270     8.7640 hc         1 79C       0.046950
     56 H20         -1.0800     4.8500     9.4210 hc         1 79C       0.046950
     57 H21         -1.0530     1.8430    11.0830 hc         1 79C       0.055950
     58 H22         -2.4170     1.2260    10.1220 hc         1 79C       0.055950
     59 H23          3.9840     0.0220    -0.4070 hn         1 79C       0.316500
     60 H24          3.6810     0.5840    -3.2780 h1         1 79C       0.077700
     61 H25          6.1360     0.0440    -1.5690 hc         1 79C       0.055450
     62 H26          5.5070     1.6400    -2.0170 hc         1 79C       0.055450
     63 H27          7.3820     0.9620    -3.4890 h1         1 79C       0.036700
     64 H28          5.8700     1.1200    -4.3990 h1         1 79C       0.036700
     65 H30          7.4750    -1.9980    -5.5440 h1         1 79C       0.032033
     66 H31          8.3520    -0.5480    -5.0370 h1         1 79C       0.032033
     67 H32          6.9350    -0.4030    -6.0850 h1         1 79C       0.032033
     68 H33          4.6760    -0.8540    -5.0910 h1         1 79C       0.036700
     69 H34          5.3150    -2.4560    -4.6850 h1         1 79C       0.036700
     70 H35          4.8780    -2.0320    -2.2960 hc         1 79C       0.055450
     71 H36          3.3900    -1.8560    -3.2420 hc         1 79C       0.055450
     72 O2          -2.0480     0.0060     1.2000 os         1 79C      -0.339900
     73 C15          2.2580     3.3100     8.1860 c3         1 79C       0.101300
     74 C1          -2.6990     0.0110    -0.0720 c3         1 79C       0.128700
@<TRIPOS>BOND
     1    20    19 1   
     2    19    21 1   
     3    19     8 1   
     4    19    17 1   
     5    18    17 2   
     6     8    22 1   
     7    10    24 1   
     8    10    25 1   
     9    24     9 1   
    10    17    16 1   
    11     9    23 1   
    12    25    23 1   
    13    22    23 1   
    14    22    11 1   
    15    16    73 1   
    16    16     7 1   
    17    11     7 ar  
    18    11    26 ar  
    19     7    15 ar  
    20    34    33 1   
    21    33    32 1   
    22    33    35 1   
    23    26     6 ar  
    24    32    31 1   
    25    15    14 ar  
    26    31    30 1   
    27    35    36 1   
    28    36    30 1   
    29     6    14 ar  
    30     6    13 1   
    31     4     3 ar  
    32     4     5 ar  
    33    29    30 1   
    34    29    27 1   
    35     3     2 ar  
    36    13     5 1   
    37     5    12 ar  
    38     2    27 1   
    39     2     1 ar  
    40    27    28 2   
    41    12     1 ar  
    42    12    72 1   
    43    72    74 1   
    44     1    37 1   
    45     3    38 1   
    46     4    39 1   
    47    73    40 1   
    48    73    41 1   
    49    73    42 1   
    50     8    43 1   
    51     8    44 1   
    52     9    45 1   
    53     9    46 1   
    54    10    47 1   
    55    10    48 1   
    56    74    49 1   
    57    74    50 1   
    58    74    51 1   
    59    13    52 1   
    60    15    53 1   
    61    23    54 1   
    62    24    55 1   
    63    24    56 1   
    64    25    57 1   
    65    25    58 1   
    66    29    59 1   
    67    30    60 1   
    68    31    61 1   
    69    31    62 1   
    70    32    63 1   
    71    32    64 1   
    72    34    65 1   
    73    34    66 1   
    74    34    67 1   
    75    35    68 1   
    76    35    69 1   
    77    36    70 1   
    78    36    71 1   
@<TRIPOS>SUBSTRUCTURE
     1 79C         1 TEMP              0 ****  ****    0 ROOT
