@<TRIPOS>MOLECULE
79D
   78    86     1     0     0
SMALL
bcc


@<TRIPOS>ATOM
      1 C6           0.0000     0.0000     0.0000 c3         1 79D      -0.081000
      2 C7           1.5490     0.0000     0.0000 c3         1 79D      -0.135000
      3 C8           1.8910     0.0000     1.5110 c3         1 79D      -0.129000
      4 C10         -0.3780     0.9200     1.1790 c3         1 79D      -0.135000
      5 N12         -0.6290     2.8750    -0.9850 n2         1 79D      -0.034000
      6 C13         -0.1300     4.0900    -1.1550 c2         1 79D       0.067000
      7 C15         -0.2440     6.4470    -0.6720 c3         1 79D      -0.006000
      8 C17          1.6990     7.8520    -0.6950 c2         1 79D      -0.076000
      9 C20         -1.0670     7.5690    -0.7650 c2         1 79D       0.063000
     10 C26          3.4170    11.8060    -0.8660 c3         1 79D      -0.164000
     11 C28          5.4440    13.1610    -0.3300 DU         1 79D       0.176000
     12 C1          -2.0020    -1.9670    -1.3630 c3         1 79D      -0.601000
     13 C3          -0.3250    -0.4070    -2.3630 c3         1 79D       0.113000
     14 N5          -0.5130     0.5450    -1.2640 nh         1 79D       0.058000
     15 C9           0.8240     0.9200     2.1400 c3         1 79D      -0.129000
     16 C11         -0.0140     1.8100    -1.4950 c2         1 79D       0.052000
     17 C16          1.1370     6.5950    -0.6390 c2         1 79D      -0.167000
     18 C18          0.8800     8.9800    -0.7820 c2         1 79D      -0.091000
     19 C19         -0.5100     8.8310    -0.8200 c2         1 79D      -0.059000
     20 O21         -2.4190     7.4220    -0.8010 os         1 79D      -0.166000
     21 C23          1.4800    10.3270    -0.8400 c2         1 79D       0.260000
     22 O24          0.7660    11.3080    -0.9160 o          1 79D      -0.370000
     23 N25          2.8200    10.4690    -0.8080 ns         1 79D       0.045000
     24 C27          4.8010    11.7770    -0.2120 c3         1 79D      -0.385000
     25 N29          5.5590    13.5300    -1.7460 n3         1 79D      -0.325000
     26 C30          6.2960    14.7910    -1.9030 c3         1 79D      -0.086000
     27 C31          4.2380    13.6110    -2.3830 c3         1 79D       0.178000
     28 C32          3.5600    12.2400    -2.3280 c3         1 79D      -0.287000
     29 N33          0.9930     4.3070    -1.8220 n2         1 79D      -0.199000
     30 C34          1.6600     3.2980    -2.3710 c2         1 79D       0.035000
     31 C35          1.1610     2.0210    -2.2360 c2         1 79D      -0.329000
     32 N36          1.7660     0.9060    -2.8250 na         1 79D       0.473000
     33 C37          2.9710     0.7100    -3.3870 c2         1 79D      -0.252000
     34 N38          3.0600    -0.5360    -3.7740 n2         1 79D      -0.051000
     35 C39          1.9000    -1.1820    -3.4730 c2         1 79D       0.019000
     36 C40          1.6030    -2.5590    -3.7320 c1         1 79D      -0.057000
     37 N41          1.3830    -3.6510    -3.9510 n1         1 79D      -0.056000
     38 C42          1.0800    -0.2860    -2.8860 c2         1 79D      -0.356000
     39 H1          -0.3770    -1.0020     0.1680 h1         1 79D       0.150000
     40 H2           2.0260     0.5580    -0.7970 hc         1 79D       0.075000
     41 H3           1.9010    -0.9720    -0.3220 hc         1 79D       0.075000
     42 H4           2.8700     0.2620     1.8940 hc         1 79D       0.059500
     43 H5           1.5330    -0.8680     2.0520 hc         1 79D       0.059500
     44 H6          -1.0850     0.4940     1.8810 hc         1 79D       0.075000
     45 H7          -0.5220     1.9450     0.8620 hc         1 79D       0.075000
     46 H8           2.7610     8.0520    -0.7820 ha         1 79D       0.119000
     47 H9          -1.6780     6.1290    -2.4690 h1         1 79D       0.061000
     48 H10         -2.5790     7.6920    -2.8060 h1         1 79D       0.061000
     49 H11         -3.4800     6.6560    -1.9720 h1         1 79D       0.061000
     50 H12          2.7850    12.5130    -0.3400 h1         1 79D       0.099000
     51 H14          4.8160    13.8610     0.2090 ha         1 79D       0.099500
     52 H15         -2.3370    -1.1810    -2.0290 hc         1 79D       0.065000
     53 H16         -1.0950    -2.3260    -1.8340 DU         1 79D       0.238000
     54 H17         -2.4340    -2.9520    -1.4870 hc         1 79D       0.065000
     55 H20         -1.0260    -0.1830    -3.1580 h1         1 79D       0.097000
     56 H21          0.6130     0.3450     3.0340 hc         1 79D       0.059500
     57 H22          1.2630     1.8710     2.4170 hc         1 79D       0.059500
     58 H24          1.7060     5.6800    -0.5270 ha         1 79D       0.151000
     59 H25         -1.2510     9.6030    -0.9920 ha         1 79D       0.147000
     60 H26          3.3070     9.7970    -0.2490 hn         1 79D       0.086000
     61 H27          5.1130    10.9240    -0.8020 hc         1 79D       0.090000
     62 H28          5.1570    12.6290    -0.7790 DU         1 79D       0.092000
     63 H30          6.1790    14.9780    -2.9630 h1         1 79D       0.056667
     64 H31          6.1770    15.6710    -1.2830 h1         1 79D       0.056667
     65 H32          7.3400    14.5040    -1.9320 h1         1 79D       0.056667
     66 H33          4.1290    14.0090    -3.3850 h1         1 79D       0.089000
     67 H34          3.7710    14.2280    -1.6250 h1         1 79D       0.089000
     68 H35          4.1760    13.1260    -2.4290 hc         1 79D       0.039500
     69 H36          4.3120    11.5250    -2.6380 hc         1 79D       0.039500
     70 H37          2.5950     3.6180    -2.8150 h4         1 79D       0.137000
     71 H38          3.8050     1.2930    -3.0160 h5         1 79D       0.164000
     72 N14         -0.8080     5.1720    -0.6150 nu         1 79D      -0.247000
     73 C2          -0.5590    -1.8310    -1.8530 DU         1 79D      -0.205000
     74 H13          6.4880    12.8780    -0.2730 ha         1 79D       0.099500
     75 C22         -2.4280     6.8430    -2.1490 c3         1 79D       0.007000
     76 H18         -0.3650    -1.4190    -0.8700 ha         1 79D       0.167500
     77 H19         -0.2620    -2.8550    -1.6620 ha         1 79D       0.167500
     78 H23         -0.2380     5.9500    -0.3480 DU         1 79D       0.248000
@<TRIPOS>BOND
     1     1     2 1   
     2     1     4 1   
     3     1    14 1   
     4     1    39 1   
     5     2     3 1   
     6     2    40 1   
     7     2    41 1   
     8     3    15 1   
     9     3    42 1   
    10     3    43 1   
    11     4    15 1   
    12     4    44 1   
    13     4    45 1   
    14     5     6 1   
    15     5    16 1   
    16     6    29 1   
    17     6    72 1   
    18     7     9 1   
    19     7    17 1   
    20     7    72 1   
    21     7    78 1   
    22     8    17 1   
    23     8    18 1   
    24     8    46 1   
    25     9    19 1   
    26     9    20 1   
    27    10    23 1   
    28    10    24 1   
    29    10    28 1   
    30    10    50 1   
    31    11    24 1   
    32    11    25 1   
    33    11    51 1   
    34    11    62 1   
    35    11    74 1   
    36    12    52 1   
    37    12    53 1   
    38    12    54 1   
    39    12    73 1   
    40    13    14 1   
    41    13    38 1   
    42    13    55 1   
    43    13    73 1   
    44    14    16 1   
    45    15    56 1   
    46    15    57 1   
    47    16    31 1   
    48    17    58 1   
    49    18    19 1   
    50    18    21 1   
    51    19    59 1   
    52    20    75 1   
    53    21    22 1   
    54    21    23 1   
    55    23    60 1   
    56    24    61 1   
    57    24    62 1   
    58    25    26 1   
    59    25    27 1   
    60    26    63 1   
    61    26    64 1   
    62    26    65 1   
    63    27    28 1   
    64    27    66 1   
    65    27    67 1   
    66    28    68 1   
    67    28    69 1   
    68    29    30 1   
    69    30    31 1   
    70    30    70 1   
    71    31    32 1   
    72    32    33 1   
    73    32    38 1   
    74    33    34 1   
    75    33    71 1   
    76    34    35 1   
    77    35    36 1   
    78    35    38 1   
    79    36    37 1   
    80    47    75 1   
    81    48    75 1   
    82    49    75 1   
    83    53    73 1   
    84    72    78 1   
    85    73    76 1   
    86    73    77 1   
@<TRIPOS>SUBSTRUCTURE
     1 79D         1 TEMP              0 ****  ****    0 ROOT
