@<TRIPOS>MOLECULE
molecule
   78    83     1     0     0
SMALL
bcc


@<TRIPOS>ATOM
      1 C6           0.0000     0.0000     0.0000 c3         1 79D       0.181500
      2 C7           1.5490     0.0000     0.0000 c3         1 79D      -0.098400
      3 C8           1.8910     0.0000     1.5110 c3         1 79D      -0.106900
      4 C10         -0.3780     0.9200     1.1790 c3         1 79D      -0.098400
      5 N12         -0.6290     2.8750    -0.9850 nb         1 79D      -0.690000
      6 C13         -0.1300     4.0900    -1.1550 ca         1 79D       0.864900
      7 C15         -0.2440     6.4470    -0.6720 ca         1 79D       0.022600
      8 C17          1.6990     7.8520    -0.6950 ca         1 79D      -0.111000
      9 C20         -1.0670     7.5690    -0.7650 ca         1 79D       0.109100
     10 C26          3.4170    11.8060    -0.8660 c3         1 79D       0.036700
     11 C28          5.4440    13.1610    -0.3300 c3         1 79D       0.244800
     12 C1          -2.0020    -1.9670    -1.3630 c3         1 79D      -0.503100
     13 C3          -0.3250    -0.4070    -2.3630 c3         1 79D       0.333800
     14 N5          -0.5130     0.5450    -1.2640 nh         1 79D      -0.695300
     15 C9           0.8240     0.9200     2.1400 c3         1 79D      -0.106900
     16 C11         -0.0140     1.8100    -1.4950 ca         1 79D       0.702200
     17 C16          1.1370     6.5950    -0.6390 ca         1 79D      -0.165000
     18 C18          0.8800     8.9800    -0.7820 ca         1 79D      -0.097600
     19 C19         -0.5100     8.8310    -0.8200 ca         1 79D      -0.093000
     20 O21         -2.4190     7.4220    -0.8010 os         1 79D      -0.287900
     21 C23          1.4800    10.3270    -0.8400 c          1 79D       0.660700
     22 O24          0.7660    11.3080    -0.9160 o          1 79D      -0.570100
     23 N25          2.8200    10.4690    -0.8080 ns         1 79D      -0.516900
     24 C27          4.8010    11.7770    -0.2120 c3         1 79D      -0.338400
     25 N29          5.5590    13.5300    -1.7460 n3         1 79D      -0.908600
     26 C30          6.2960    14.7910    -1.9030 c3         1 79D       0.108100
     27 C31          4.2380    13.6110    -2.3830 c3         1 79D       0.244800
     28 C32          3.5600    12.2400    -2.3280 c3         1 79D      -0.338400
     29 N33          0.9930     4.3070    -1.8220 nb         1 79D      -0.822000
     30 C34          1.6600     3.2980    -2.3710 ca         1 79D       0.491200
     31 C35          1.1610     2.0210    -2.2360 ca         1 79D      -0.337800
     32 N36          1.7660     0.9060    -2.8250 na         1 79D      -0.089000
     33 C37          2.9710     0.7100    -3.3870 cc         1 79D       0.430400
     34 N38          3.0600    -0.5360    -3.7740 nd         1 79D      -0.655000
     35 C39          1.9000    -1.1820    -3.4730 cd         1 79D       0.421300
     36 C40          1.6030    -2.5590    -3.7320 ch         1 79D       0.175800
     37 N41          1.3830    -3.6510    -3.9510 n1         1 79D      -0.358800
     38 C42          1.0800    -0.2860    -2.8860 cc         1 79D      -0.236900
     39 H1          -0.3770    -1.0020     0.1680 h1         1 79D       0.129700
     40 H2           2.0260     0.5580    -0.7970 hc         1 79D       0.064450
     41 H3           1.9010    -0.9720    -0.3220 hc         1 79D       0.064450
     42 H4           2.8700     0.2620     1.8940 hc         1 79D       0.046450
     43 H5           1.5330    -0.8680     2.0520 hc         1 79D       0.046450
     44 H6          -1.0850     0.4940     1.8810 hc         1 79D       0.064450
     45 H7          -0.5220     1.9450     0.8620 hc         1 79D       0.064450
     46 H8           2.7610     8.0520    -0.7820 ha         1 79D       0.148000
     47 H9          -1.6780     6.1290    -2.4690 h1         1 79D       0.066367
     48 H10         -2.5790     7.6920    -2.8060 h1         1 79D       0.066367
     49 H11         -3.4800     6.6560    -1.9720 h1         1 79D       0.066367
     50 H12          2.7850    12.5130    -0.3400 h1         1 79D       0.068700
     51 H14          4.8160    13.8610     0.2090 h1         1 79D       0.105200
     52 H15         -2.3370    -1.1810    -2.0290 hc         1 79D       0.113367
     53 H16         -1.0950    -2.3260    -1.8340 hc         1 79D       0.113367
     54 H17         -2.4340    -2.9520    -1.4870 hc         1 79D       0.113367
     55 H20         -1.0260    -0.1830    -3.1580 h1         1 79D       0.105700
     56 H21          0.6130     0.3450     3.0340 hc         1 79D       0.046450
     57 H22          1.2630     1.8710     2.4170 hc         1 79D       0.046450
     58 H24          1.7060     5.6800    -0.5270 ha         1 79D       0.177000
     59 H25         -1.2510     9.6030    -0.9920 ha         1 79D       0.180000
     60 H26          3.3070     9.7970    -0.2490 hn         1 79D       0.307500
     61 H27          5.1130    10.9240    -0.8020 hc         1 79D       0.116700
     62 H28          5.1570    12.6290    -0.7790 hc         1 79D       0.116700
     63 H30          6.1790    14.9780    -2.9630 h1         1 79D       0.052700
     64 H31          6.1770    15.6710    -1.2830 h1         1 79D       0.052700
     65 H32          7.3400    14.5040    -1.9320 h1         1 79D       0.052700
     66 H33          4.1290    14.0090    -3.3850 h1         1 79D       0.105200
     67 H34          3.7710    14.2280    -1.6250 h1         1 79D       0.105200
     68 H35          4.1760    13.1260    -2.4290 hc         1 79D       0.116700
     69 H36          4.3120    11.5250    -2.6380 hc         1 79D       0.116700
     70 H37          2.5950     3.6180    -2.8150 h4         1 79D       0.041100
     71 H38          3.8050     1.2930    -3.0160 h5         1 79D       0.074100
     72 N14         -0.8080     5.1720    -0.6150 nu         1 79D      -0.763300
     73 C2          -0.5590    -1.8310    -1.8530 c3         1 79D      -0.219400
     74 H13          6.4880    12.8780    -0.2730 h1         1 79D       0.105200
     75 C22         -2.4280     6.8430    -2.1490 c3         1 79D       0.087700
     76 H18         -0.3650    -1.4190    -0.8700 hc         1 79D       0.149200
     77 H19         -0.2620    -2.8550    -1.6620 hc         1 79D       0.149200
     78 H23         -0.2380     5.9500    -0.3480 hn         1 79D       0.532800
@<TRIPOS>BOND
     1    75    20 1
     2    20     9 1
     3    22    21 2
     4    19     9 ar
     5    19    18 ar
     6     9     7 ar
     7    21    18 1
     8    21    23 1
     9    18     8 ar
    10     7    72 1
    11     7    17 ar
    12    72     6 1
    13    29     6 ar
    14    29    30 ar
    15     8    17 ar
    16    10    23 1
    17    10    24 1
    18    10    28 1
    19     6     5 ar
    20    24    11 1
    21    11    25 1
    22    30    31 ar
    23    28    27 1
    24    27    25 1
    25     5    16 ar
    26    26    25 1
    27    31    16 ar
    28    31    32 1
    29    16    14 1
    30    33    32 1
    31    33    34 2
    32    32    38 1
    33    14     1 1
    34    14    13 1
    35     1     4 1
    36     1     2 1
    37    34    35 1
    38    38    13 1
    39    38    35 2
    40     4    15 1
    41     2     3 1
    42     3    15 1
    43    13    73 1
    44    35    36 1
    45    12    73 1
    46    36    37 3
    47     1    39 1
    48     2    40 1
    49     2    41 1
    50     3    42 1
    51     3    43 1
    52     4    44 1
    53     4    45 1
    54     8    46 1
    55    75    47 1
    56    75    48 1
    57    75    49 1
    58    10    50 1
    59    11    74 1
    60    11    51 1
    61    12    52 1
    62    12    53 1
    63    12    54 1
    64    73    76 1
    65    73    77 1
    66    13    55 1
    67    15    56 1
    68    15    57 1
    69    72    78 1
    70    17    58 1
    71    19    59 1
    72    23    60 1
    73    24    61 1
    74    24    62 1
    75    26    63 1
    76    26    64 1
    77    26    65 1
    78    27    66 1
    79    27    67 1
    80    28    68 1
    81    28    69 1
    82    30    70 1
    83    33    71 1
@<TRIPOS>SUBSTRUCTURE
     1 79D         1 TEMP              0 ****  ****    0 ROOT
