@<TRIPOS>MOLECULE
molecule
   56    56     1     0     0
SMALL
bcc


@<TRIPOS>ATOM
      1 C2           0.0000     0.0000     0.0000 ca         1 79F      -0.103000
      2 C3           1.3820     0.0000     0.0000 ca         1 79F      -0.141500
      3 C8          -0.6910     0.0060     1.1980 ca         1 79F      -0.077300
      4 C9          -2.1970     0.0130     1.1990 c3         1 79F       0.214700
      5 C13         -4.0230    -1.5250     1.2040 c          1 79F       0.741100
      6 C24        -10.1160    -2.9480    -1.9900 c          1 79F       0.674100
      7 N25        -10.7800    -2.9960    -3.1620 ns         1 79F      -0.565900
      8 C27        -12.3610    -2.0090    -4.7450 c3         1 79F      -0.070400
      9 C33        -11.5440    -0.6580    -6.6820 c3         1 79F      -0.086100
     10 C4           2.0740     0.0000     1.1960 ca         1 79F      -0.136000
     11 C5           1.3840     0.0000     2.3950 ca         1 79F      -0.141500
     12 C6           0.0010     0.0070     2.3950 ca         1 79F      -0.103000
     13 C17         -5.9970    -2.9540     1.2090 c3         1 79F      -0.065200
     14 P18         -6.5810    -3.1850    -0.5020 p5         1 79F       1.124500
     15 O19         -6.2370    -1.9900    -1.3060 o          1 79F      -0.818500
     16 O20         -5.8750    -4.4830    -1.1400 o          1 79F      -0.818500
     17 N21         -8.2500    -3.3980    -0.5000 n7         1 79F      -0.906300
     18 C23         -8.7580    -3.5870    -1.8650 c3         1 79F       0.174500
     19 C47         -8.8700    -5.0840    -2.1660 c3         1 79F       0.103400
     20 O50         -9.8550    -5.6680    -1.3110 oh         1 79F      -0.582800
     21 O12         -2.6870    -1.3550     1.2030 os         1 79F      -0.453900
     22 O14         -4.7590    -0.5580     1.2020 o          1 79F      -0.605000
     23 N15         -4.5430    -2.7680     1.2080 ns         1 79F      -0.516900
     24 C26        -12.1010    -2.3740    -3.2820 c3         1 79F       0.011700
     25 C28        -11.3660    -0.9340    -5.1870 c3         1 79F      -0.083700
     26 C29        -11.6200     0.3520    -4.3980 c3         1 79F      -0.086100
     27 C41        -13.1560    -3.3410    -2.8100 c          1 79F       0.884600
     28 O42        -14.4510    -2.9840    -2.8300 o          1 79F      -0.850300
     29 O43        -12.8380    -4.4370    -2.4150 o          1 79F      -0.850300
     30 H1          -0.5420     0.0000    -0.9380 ha         1 79F       0.139500
     31 H2           1.9230    -0.0030    -0.9380 ha         1 79F       0.119500
     32 H3          -2.5570     0.5220     0.3130 h1         1 79F       0.054700
     33 H4          -2.5560     0.5270     2.0820 h1         1 79F       0.054700
     34 H5         -10.3840    -3.4830    -3.9420 hn         1 79F       0.288500
     35 H6         -13.3710    -1.6300    -4.8480 hc         1 79F       0.045200
     36 H7         -12.2400    -2.8890    -5.3640 hc         1 79F       0.045200
     37 H8         -12.5390    -0.2690    -6.8610 hc         1 79F       0.023867
     38 H9         -10.8080     0.0680    -7.0050 hc         1 79F       0.023867
     39 H10        -11.4110    -1.5790    -7.2370 hc         1 79F       0.023867
     40 H11          3.1570    -0.0030     1.1950 ha         1 79F       0.114000
     41 H12          1.9260     0.0010     3.3330 ha         1 79F       0.119500
     42 H13         -0.5400     0.0090     3.3330 ha         1 79F       0.139500
     43 H14         -6.4720    -2.0800     1.6380 h1         1 79F       0.055700
     44 H15         -6.2480    -3.8280     1.7970 h1         1 79F       0.055700
     45 H17         -8.6950    -3.8600     0.2680 hn         1 79F       0.401800
     46 H18         -8.0770    -3.1270    -2.5710 h1         1 79F       0.094700
     47 H19         -7.9120    -5.5600    -1.9920 h1         1 79F       0.029200
     48 H20         -9.1600    -5.2240    -3.2000 h1         1 79F       0.029200
     49 H21         -9.7940    -6.6080    -1.3580 ho         1 79F       0.374000
     50 H22         -3.9370    -3.5640     1.2410 hn         1 79F       0.316500
     51 H23        -12.1340    -1.4780    -2.6750 h1         1 79F       0.072700
     52 H24        -10.3560    -1.2790    -5.0010 hc         1 79F       0.055700
     53 H25        -11.1350     0.2850    -3.4320 hc         1 79F       0.023867
     54 H26        -11.2200     1.1970    -4.9460 hc         1 79F       0.023867
     55 H27        -12.6860     0.4850    -4.2580 hc         1 79F       0.023867
     56 O45        -10.6140    -2.3890    -1.0340 o          1 79F      -0.611100
@<TRIPOS>BOND
     1    11    12 ar
     2    11    10 ar
     3    12     3 ar
     4    10     2 ar
     5     3     4 1
     6     3     1 ar
     7     2     1 ar
     8     4    21 1
     9    21     5 1
    10    22     5 2
    11     5    23 1
    12    23    13 1
    13    13    14 1
    14    15    14 1
    15    16    14 1
    16    14    17 1
    17    29    27 1
    18    28    27 1
    19    27    24 1
    20    24     7 1
    21    24     8 1
    22    17    18 1
    23     7     6 1
    24     6    56 2
    25     6    18 1
    26    18    19 1
    27     8    25 1
    28    25    26 1
    29    25     9 1
    30    19    20 1
    31     1    30 1
    32     2    31 1
    33     4    32 1
    34     4    33 1
    35     7    34 1
    36     8    35 1
    37     8    36 1
    38     9    37 1
    39     9    38 1
    40     9    39 1
    41    10    40 1
    42    11    41 1
    43    12    42 1
    44    13    43 1
    45    13    44 1
    46    17    45 1
    47    18    46 1
    48    19    47 1
    49    19    48 1
    50    20    49 1
    51    23    50 1
    52    24    51 1
    53    25    52 1
    54    26    53 1
    55    26    54 1
    56    26    55 1
@<TRIPOS>SUBSTRUCTURE
     1 79F         1 TEMP              0 ****  ****    0 ROOT
