@<TRIPOS>MOLECULE
molecule
   81    84     1     0     0
SMALL
bcc


@<TRIPOS>ATOM
      1 C31          0.0000     0.0000     0.0000 c3         1 79G       0.124700
      2 O39          1.4290     0.0000     0.0000 os         1 79G      -0.323900
      3 C2           2.0450     0.0000     1.2120 ca         1 79G       0.197100
      4 C12          3.4300     0.0000     1.2860 ca         1 79G      -0.213000
      5 C10          4.0540     0.0010     2.5190 ca         1 79G       0.004000
      6 C4           1.2900     0.0060     2.3750 ca         1 79G      -0.213000
      7 C6           1.9190     0.0070     3.6060 ca         1 79G       0.004000
      8 C8           3.2990     0.0020     3.6770 ca         1 79G      -0.356500
      9 S8           4.0980     0.0020     5.2480 sy         1 79G       1.430200
     10 O9           5.3960     0.5400     5.0380 o          1 79G      -0.631800
     11 O10          3.1680     0.5520     6.1710 o          1 79G      -0.631800
     12 N11          4.3140    -1.5800     5.6880 n3         1 79G      -0.814500
     13 C17          3.2780    -2.2740     6.4590 c3         1 79G       0.228800
     14 C18          2.3330    -3.0020     5.5010 c3         1 79G      -0.102700
     15 C20          3.1110    -4.0720     4.7310 c3         1 79G      -0.087600
     16 C19          1.2090    -3.6650     6.3000 c3         1 79G      -0.087600
     17 C21          5.5400    -2.2860     5.3080 c3         1 79G       0.230800
     18 C22          6.5240    -2.2670     6.4790 c3         1 79G       0.110100
     19 O18          6.8380    -0.9140     6.8160 oh         1 79G      -0.589800
     20 C23          7.8050    -3.0040     6.0820 c3         1 79G       0.107700
     21 C24          8.7880    -2.9840     7.2540 c3         1 79G      -0.053100
     22 C30          9.9980    -3.8130     6.9080 ca         1 79G      -0.068300
     23 C25         11.0840    -3.2260     6.2870 ca         1 79G      -0.116500
     24 C26         12.1940    -3.9860     5.9690 ca         1 79G      -0.123500
     25 C27         12.2180    -5.3350     6.2720 ca         1 79G      -0.131000
     26 C28         11.1320    -5.9220     6.8930 ca         1 79G      -0.123500
     27 C29         10.0240    -5.1610     7.2160 ca         1 79G      -0.116500
     28 N20          8.4100    -2.3410     4.9250 ns         1 79G      -0.560900
     29 C1           9.2130    -3.0350     4.0950 c          1 79G       0.666700
     30 O22          9.4340    -4.2120     4.3060 o          1 79G      -0.604100
     31 C3           9.8230    -2.3680     2.9280 ca         1 79G      -0.148600
     32 C5          10.6550    -3.0840     2.0660 ca         1 79G      -0.056000
     33 C9          11.2250    -2.4610     0.9740 ca         1 79G      -0.267300
     34 C14         12.1230    -3.2660     0.0690 c3         1 79G       0.176800
     35 N1          11.5270    -4.5890    -0.1590 nz         1 79G      -0.807600
     36 C15         12.2850    -2.5440    -1.2720 c3         1 79G      -0.154400
     37 C16         12.6260    -1.0750    -0.9880 c3         1 79G       0.161400
     38 O1          11.5090    -0.4720    -0.3350 os         1 79G      -0.304900
     39 C11         10.9720    -1.1180     0.7310 ca         1 79G       0.200100
     40 C13         10.1430    -0.4010     1.5920 ca         1 79G      -0.143000
     41 C7           9.5670    -1.0170     2.6790 ca         1 79G      -0.038000
     42 H1          -0.3610     0.8880     0.5040 h1         1 79G       0.049033
     43 H2          -0.3610    -0.0080    -1.0210 h1         1 79G       0.049033
     44 H3          -0.3610    -0.8810     0.5170 h1         1 79G       0.049033
     45 H4           4.0220     0.0490     0.3800 ha         1 79G       0.146000
     46 H5           5.1360     0.0320     2.5780 ha         1 79G       0.148500
     47 H6           0.2090     0.0600     2.3190 ha         1 79G       0.146000
     48 H7           1.3310     0.0680     4.5140 ha         1 79G       0.148500
     49 H8           2.7170    -1.5540     7.0410 h1         1 79G       0.066700
     50 H9           3.7430    -2.9930     7.1230 h1         1 79G       0.066700
     51 H10          1.9090    -2.2910     4.8020 hc         1 79G       0.054700
     52 H11          2.4150    -4.7650     4.2740 hc         1 79G       0.037367
     53 H12          3.7090    -3.6000     3.9610 hc         1 79G       0.037367
     54 H13          3.7590    -4.6080     5.4140 hc         1 79G       0.037367
     55 H14          0.6780    -2.9120     6.8690 hc         1 79G       0.037367
     56 H15          1.6310    -4.3980     6.9770 hc         1 79G       0.037367
     57 H16          0.5230    -4.1550     5.6200 hc         1 79G       0.037367
     58 H17          5.3030    -3.3110     5.0530 h1         1 79G       0.062200
     59 H18          5.9890    -1.7960     4.4520 h1         1 79G       0.062200
     60 H19          6.0750    -2.7570     7.3350 h1         1 79G       0.054700
     61 H20          6.7060    -0.7800     7.7400 ho         1 79G       0.413000
     62 H21          7.5670    -4.0300     5.8280 h1         1 79G       0.084700
     63 H22          9.0940    -1.9640     7.4510 hc         1 79G       0.063200
     64 H23          8.3090    -3.3940     8.1350 hc         1 79G       0.063200
     65 H24         11.0660    -2.1690     6.0490 ha         1 79G       0.127000
     66 H25         13.0450    -3.5250     5.4820 ha         1 79G       0.125000
     67 H26         13.0860    -5.9320     6.0210 ha         1 79G       0.124000
     68 H27         11.1510    -6.9790     7.1330 ha         1 79G       0.125000
     69 H28          9.1730    -5.6220     7.7030 ha         1 79G       0.127000
     70 H29          8.2550    -1.3640     4.7700 hn         1 79G       0.337500
     71 H30         10.8550    -4.1320     2.2550 ha         1 79G       0.138000
     72 H31         13.0950    -3.3790     0.5350 hx         1 79G       0.119700
     73 H32         11.9840    -5.0320    -0.9310 hn         1 79G       0.457133
     74 H33         10.5530    -4.4860    -0.3620 hn         1 79G       0.457133
     75 H35         13.0880    -3.0010    -1.8370 hc         1 79G       0.079200
     76 H36         11.3590    -2.6010    -1.8300 hc         1 79G       0.079200
     77 H37         12.8020    -0.5660    -1.9280 h1         1 79G       0.088700
     78 H38         13.4850    -1.0330    -0.3290 h1         1 79G       0.088700
     79 H39          9.9430     0.6460     1.4000 ha         1 79G       0.177000
     80 H40          8.8590    -0.4760     3.2960 ha         1 79G       0.170000
     81 H131        11.6380    -5.1510     0.6620 hn         1 79G       0.457133
@<TRIPOS>BOND
     1     1     2 1
     2     2     3 1
     3     6     3 ar
     4     6     7 ar
     5     3     4 ar
     6     7     8 ar
     7    15    14 1
     8     4     5 ar
     9     8     5 ar
    10     8     9 1
    11    11     9 2
    12    13    14 1
    13    13    12 1
    14    14    16 1
    15     9    12 1
    16     9    10 2
    17    12    17 1
    18    17    18 1
    19    30    29 2
    20    18    20 1
    21    18    19 1
    22    20    28 1
    23    20    21 1
    24    27    26 ar
    25    27    22 ar
    26    29    28 1
    27    29    31 1
    28    21    22 1
    29    26    25 ar
    30    22    23 ar
    31    41    31 ar
    32    41    40 ar
    33    31    32 ar
    34    25    24 ar
    35    40    39 ar
    36    32    33 ar
    37    23    24 ar
    38    39    33 ar
    39    39    38 1
    40    33    34 1
    41    35    34 1
    42    38    37 1
    43    34    36 1
    44    37    36 1
    45     1    42 1
    46     1    43 1
    47     1    44 1
    48     4    45 1
    49     5    46 1
    50     6    47 1
    51     7    48 1
    52    13    49 1
    53    13    50 1
    54    14    51 1
    55    15    52 1
    56    15    53 1
    57    15    54 1
    58    16    55 1
    59    16    56 1
    60    16    57 1
    61    17    58 1
    62    17    59 1
    63    18    60 1
    64    19    61 1
    65    20    62 1
    66    21    63 1
    67    21    64 1
    68    23    65 1
    69    24    66 1
    70    25    67 1
    71    26    68 1
    72    27    69 1
    73    28    70 1
    74    32    71 1
    75    34    72 1
    76    35    73 1
    77    35    74 1
    78    36    75 1
    79    36    76 1
    80    37    77 1
    81    37    78 1
    82    40    79 1
    83    41    80 1
    84    81    35 1
@<TRIPOS>SUBSTRUCTURE
     1 79G         1 TEMP              0 ****  ****    0 ROOT
