@<TRIPOS>MOLECULE
79H
   46    50     1     0     0
SMALL
bcc


@<TRIPOS>ATOM
      1 C16          0.0000     0.0000     0.0000 c2         1 79H      -0.075000
      2 N3           7.3510    -0.6270    -0.1090 n1         1 79H      -0.078000
      3 C6           5.8160    -0.3150    -2.1430 c2         1 79H      -0.146000
      4 C7           6.2070    -0.2570    -3.4980 c2         1 79H      -0.026000
      5 N1           5.1450    -0.0850    -4.2310 n2         1 79H      -0.135000
      6 N2           4.0140    -0.0220    -3.4050 n          1 79H       0.217000
      7 C8           2.7080     0.1450    -3.7160 c2         1 79H       0.255000
      8 O            2.3480     0.2710    -4.8630 o          1 79H      -0.289000
      9 C3           1.7140     0.1700    -2.5730 c3         1 79H      -0.135000
     10 C1           0.9640     1.5030    -2.6210 c3         1 79H      -0.145000
     11 C2           1.9710     2.6540    -2.5740 c3         1 79H      -0.199000
     12 C            0.1550     1.5860    -3.9170 c3         1 79H      -0.199000
     13 C5           4.4190    -0.1710    -2.1100 c2         1 79H      -0.074000
     14 N            3.5780    -0.1630    -1.0610 n2         1 79H      -0.094000
     15 C4           2.2880     0.0010    -1.1800 c2         1 79H       0.121000
     16 C10          1.4150     0.0000     0.0000 c2         1 79H      -0.301000
     17 N6          -0.4040     0.0050     1.2400 n2         1 79H      -0.181000
     18 N4           0.7140     0.0030     2.0830 na         1 79H       0.416000
     19 C11          1.8220     0.0000     1.3240 c2         1 79H      -0.210000
     20 C12          0.6800     0.0030     3.5480 c3         1 79H      -0.290000
     21 C13         -0.1570     1.1870     4.0380 DU         1 79H      -0.759000
     22 N5          -0.1900     1.1880     5.5070 nx         1 79H       0.435000
     23 C15          1.1440     1.4480     6.0630 c3         1 79H      -0.175500
     24 C14         -1.1690     2.1600     6.0100 c3         1 79H      -0.175500
     25 H1          -0.4150     0.2400    -0.9710 h4         1 79H       0.153000
     26 H2           7.2700    -0.4560    -3.5670 h4         1 79H       0.160000
     27 H3           1.0000    -0.6290    -2.7360 hc         1 79H       0.118000
     28 H4           0.2070     1.5900    -1.8520 hc         1 79H       0.094000
     29 H5           1.2000     3.2700    -3.0200 hc         1 79H       0.084333
     30 H6           2.8440     2.2120    -3.0390 hc         1 79H       0.084333
     31 H7           1.9330     2.6830    -1.4920 hc         1 79H       0.084333
     32 H8           0.1180     2.6540    -4.0960 hc         1 79H       0.084333
     33 H9           0.8910     1.2780    -4.6490 hc         1 79H       0.084333
     34 H10         -0.4030     0.6740    -4.0950 hc         1 79H       0.084333
     35 H11          2.8380     0.2650     1.5910 h4         1 79H       0.162000
     36 H12          1.4550    -0.6310     3.9620 h1         1 79H       0.148000
     37 H13          1.0720     0.9880     3.7720 DU         1 79H       0.173000
     38 H14         -0.2240     2.0960     3.4520 hx         1 79H       0.196000
     39 H15         -0.0690     1.6080     5.0320 DU         1 79H       0.127000
     40 H17          1.8960     1.1000     5.3660 hx         1 79H       0.074833
     41 H18          1.3550     1.0010     7.0270 hx         1 79H       0.074833
     42 H19          1.3440     2.4940     6.2640 hx         1 79H       0.074833
     43 H20         -0.4490     2.9650     6.0890 hx         1 79H       0.074833
     44 H21         -2.0600     2.5890     5.5680 hx         1 79H       0.074833
     45 H22         -1.3740     1.8350     7.0230 hx         1 79H       0.074833
     46 C9           6.6790    -0.4950    -1.0150 c1         1 79H      -0.042000
@<TRIPOS>BOND
     1     1    16 1   
     2     1    17 1   
     3     1    25 1   
     4     2    46 1   
     5     3     4 1   
     6     3    13 1   
     7     3    46 1   
     8     4     5 1   
     9     4    26 1   
    10     5     6 1   
    11     6     7 1   
    12     6    13 1   
    13     7     8 1   
    14     7     9 1   
    15     9    10 1   
    16     9    15 1   
    17     9    27 1   
    18    10    11 1   
    19    10    12 1   
    20    10    28 1   
    21    11    29 1   
    22    11    30 1   
    23    11    31 1   
    24    12    32 1   
    25    12    33 1   
    26    12    34 1   
    27    13    14 1   
    28    14    15 1   
    29    15    16 1   
    30    16    19 1   
    31    17    18 1   
    32    18    19 1   
    33    18    20 1   
    34    19    35 1   
    35    20    21 1   
    36    20    36 1   
    37    20    37 1   
    38    21    22 1   
    39    21    37 1   
    40    21    38 1   
    41    21    39 1   
    42    22    23 1   
    43    22    24 1   
    44    22    39 1   
    45    23    40 1   
    46    23    41 1   
    47    23    42 1   
    48    24    43 1   
    49    24    44 1   
    50    24    45 1   
@<TRIPOS>SUBSTRUCTURE
     1 79H         1 TEMP              0 ****  ****    0 ROOT
