@<TRIPOS>MOLECULE
molecule
   46    48     1     0     0
SMALL
bcc


@<TRIPOS>ATOM
      1 C16          0.0000     0.0000     0.0000 cc         1 79H       0.336200
      2 N3           7.3510    -0.6270    -0.1090 n1         1 79H      -0.381800
      3 C6           5.8160    -0.3150    -2.1430 cd         1 79H      -0.241300
      4 C7           6.2070    -0.2570    -3.4980 cd         1 79H       0.383200
      5 N1           5.1450    -0.0850    -4.2310 nc         1 79H      -0.448800
      6 N2           4.0140    -0.0220    -3.4050 n          1 79H       0.043300
      7 C8           2.7080     0.1450    -3.7160 c          1 79H       0.630300
      8 O            2.3480     0.2710    -4.8630 o          1 79H      -0.539500
      9 C3           1.7140     0.1700    -2.5730 c3         1 79H      -0.253000
     10 C1           0.9640     1.5030    -2.6210 c3         1 79H      -0.123700
     11 C2           1.9710     2.6540    -2.5740 c3         1 79H      -0.139600
     12 C            0.1550     1.5860    -3.9170 c3         1 79H      -0.139600
     13 C5           4.4190    -0.1710    -2.1100 cc         1 79H       0.233100
     14 N            3.5780    -0.1630    -1.0610 ne         1 79H      -0.636100
     15 C4           2.2880     0.0010    -1.1800 cf         1 79H       0.610900
     16 C10          1.4150     0.0000     0.0000 cd         1 79H      -0.427200
     17 N6          -0.4040     0.0050     1.2400 nd         1 79H      -0.466800
     18 N4           0.7140     0.0030     2.0830 na         1 79H       0.149400
     19 C11          1.8220     0.0000     1.3240 cc         1 79H      -0.062300
     20 C12          0.6800     0.0030     3.5480 c3         1 79H      -0.082700
     21 C13         -0.1570     1.1870     4.0380 c3         1 79H      -0.370200
     22 N5          -0.1900     1.1880     5.5070 n3         1 79H      -0.510600
     23 C15          1.1440     1.4480     6.0630 c3         1 79H       0.108100
     24 C14         -1.1690     2.1600     6.0100 c3         1 79H       0.108100
     25 H1          -0.4150     0.2400    -0.9710 h4         1 79H       0.056100
     26 H2           7.2700    -0.4560    -3.5670 h4         1 79H       0.075100
     27 H3           1.0000    -0.6290    -2.7360 hc         1 79H       0.109700
     28 H4           0.2070     1.5900    -1.8520 hc         1 79H       0.068700
     29 H5           1.2000     3.2700    -3.0200 hc         1 79H       0.069867
     30 H6           2.8440     2.2120    -3.0390 hc         1 79H       0.069867
     31 H7           1.9330     2.6830    -1.4920 hc         1 79H       0.069867
     32 H8           0.1180     2.6540    -4.0960 hc         1 79H       0.069867
     33 H9           0.8910     1.2780    -4.6490 hc         1 79H       0.069867
     34 H10         -0.4030     0.6740    -4.0950 hc         1 79H       0.069867
     35 H11          2.8380     0.2650     1.5910 h4         1 79H       0.192000
     36 H12          1.4550    -0.6310     3.9620 h1         1 79H       0.122700
     37 H13          1.0720     0.9880     3.7720 h1         1 79H       0.122700
     38 H14         -0.2240     2.0960     3.4520 h1         1 79H       0.181200
     39 H15         -0.0690     1.6080     5.0320 h1         1 79H       0.181200
     40 H17          1.8960     1.1000     5.3660 h1         1 79H       0.067533
     41 H18          1.3550     1.0010     7.0270 h1         1 79H       0.067533
     42 H19          1.3440     2.4940     6.2640 h1         1 79H       0.067533
     43 H20         -0.4490     2.9650     6.0890 h1         1 79H       0.067533
     44 H21         -2.0600     2.5890     5.5680 h1         1 79H       0.067533
     45 H22         -1.3740     1.8350     7.0230 h1         1 79H       0.067533
     46 C9           6.6790    -0.4950    -1.0150 ch         1 79H       0.285800
@<TRIPOS>BOND
     1    24    22 1   
     2    23    22 1   
     3    22    21 1   
     4    21    20 1   
     5    20    18 1   
     6    18    19 1   
     7    18    17 1   
     8    19    16 2   
     9    17     1 2   
    10     2    46 3   
    11    16     1 1   
    12    16    15 1   
    13    46     3 1   
    14    14    15 2   
    15    14    13 1   
    16    12    10 1   
    17    15     9 1   
    18    13     3 2   
    19    13     6 1   
    20     3     4 1   
    21     9    10 1   
    22     9     7 1   
    23    10    11 1   
    24     6     7 1   
    25     6     5 1   
    26     4     5 2   
    27     7     8 2   
    28     1    25 1   
    29     4    26 1   
    30     9    27 1   
    31    10    28 1   
    32    11    29 1   
    33    11    30 1   
    34    11    31 1   
    35    12    32 1   
    36    12    33 1   
    37    12    34 1   
    38    19    35 1   
    39    20    36 1   
    40    20    37 1   
    41    21    38 1   
    42    21    39 1   
    43    23    40 1   
    44    23    41 1   
    45    23    42 1   
    46    24    43 1   
    47    24    44 1   
    48    24    45 1   
@<TRIPOS>SUBSTRUCTURE
     1 79H         1 TEMP              0 ****  ****    0 ROOT
