@<TRIPOS>MOLECULE
79J
   44    44     1     0     0
SMALL
bcc


@<TRIPOS>ATOM
      1 C1           1.5070     0.0000     0.0000 c          1 79J       0.942600
      2 C10         -0.7170     4.2830     2.9900 c          1 79J       0.557100
      3 C11         -0.2030     5.5500     3.6240 c3         1 79J      -0.072100
      4 O1B          2.1110    -0.8600    -0.5960 o          1 79J      -0.872800
      5 C2           0.0000     0.0000     0.0000 c3         1 79J       0.279600
      6 C3          -0.5100     0.0000     1.4430 c3         1 79J      -0.091400
      7 C4          -0.0450     1.2820     2.1410 c3         1 79J       0.119100
      8 O4          -0.5870     1.3270     3.4870 os         1 79J      -0.391900
      9 C5          -0.5470     2.4930     1.3470 c3         1 79J      -0.014300
     10 C6          -0.0350     2.3960    -0.0930 c3         1 79J       0.138100
     11 C7          -0.5800     3.5700    -0.9080 c3         1 79J       0.185100
     12 C8          -0.1740     3.4050    -2.3740 c3         1 79J       0.166100
     13 C9          -0.8230     4.5110    -3.2100 c3         1 79J       0.174400
     14 O10         -1.7300     3.7640     3.4070 o          1 79J      -0.652100
     15 N5          -0.0470     3.7240     1.9630 ns         1 79J      -0.171900
     16 C            0.1540     0.7730     4.4600 c          1 79J       0.673100
     17 O            1.2180     0.2680     4.1960 o          1 79J      -0.577000
     18 CH3         -0.3440     0.7810     5.8830 c3         1 79J      -0.043100
     19 O1A          2.1780     0.9530     0.6660 o          1 79J      -0.872800
     20 O2          -0.4760    -1.1680    -0.6740 oh         1 79J      -0.582800
     21 O6          -0.4770     1.1670    -0.6720 os         1 79J      -0.346600
     22 O7          -2.0060     3.5960    -0.8090 oh         1 79J      -0.556800
     23 O8          -0.6090     2.1300    -2.8500 oh         1 79J      -0.527800
     24 O9          -0.3510     4.4270    -4.5570 oh         1 79J      -0.593800
     25 H1          -0.8490     5.8290     4.4480 hc         1 79J       0.013700
     26 H2          -0.1940     6.3450     2.8880 hc         1 79J       0.013700
     27 H3           0.8030     5.3880     3.9920 hc         1 79J       0.013700
     28 H4          -0.1110    -0.8610     1.9660 hc         1 79J       0.022200
     29 H5          -1.5920    -0.0390     1.4430 hc         1 79J       0.022200
     30 H6           1.0380     1.2990     2.1800 h1         1 79J       0.136700
     31 H7          -1.6300     2.4980     1.3440 h1         1 79J       0.071700
     32 H8           1.0480     2.4240    -0.0910 h1         1 79J       0.101700
     33 H9          -0.1740     4.4980    -0.5230 h1         1 79J      -0.008300
     34 H10          0.9040     3.4740    -2.4590 h1         1 79J       0.016700
     35 H11         -0.5640     5.4770    -2.7960 h1         1 79J      -0.009800
     36 H12         -1.9000     4.3890    -3.1970 h1         1 79J      -0.009800
     37 H13          0.8050     4.1380     1.6370 hn         1 79J       0.171500
     38 H14          0.2580     1.4630     6.4720 hc         1 79J       0.017700
     39 H15         -0.2690    -0.2170     6.2980 hc         1 79J       0.017700
     40 H16         -1.3780     1.1040     5.9020 hc         1 79J       0.017700
     41 H18         -0.2270    -1.9350    -0.1870 ho         1 79J       0.398000
     42 H19         -2.2970     4.4840    -0.6820 ho         1 79J       0.363000
     43 H20         -0.1940     1.9440    -3.6760 ho         1 79J       0.382000
     44 H21         -0.5840     5.2150    -5.0200 ho         1 79J       0.379000
@<TRIPOS>BOND
     1     1     4 1   
     2     1     5 1   
     3     1    19 1   
     4     2     3 1   
     5     2    14 2   
     6     2    15 1   
     7     3    25 1   
     8     3    26 1   
     9     3    27 1   
    10     5     6 1   
    11     5    20 1   
    12     5    21 1   
    13     6     7 1   
    14     6    28 1   
    15     6    29 1   
    16     7     8 1   
    17     7     9 1   
    18     7    30 1   
    19     8    16 1   
    20     9    10 1   
    21     9    15 1   
    22     9    31 1   
    23    10    11 1   
    24    10    21 1   
    25    10    32 1   
    26    11    12 1   
    27    11    22 1   
    28    11    33 1   
    29    12    13 1   
    30    12    23 1   
    31    12    34 1   
    32    13    24 1   
    33    13    35 1   
    34    13    36 1   
    35    15    37 1   
    36    16    17 2   
    37    16    18 1   
    38    18    38 1   
    39    18    39 1   
    40    18    40 1   
    41    20    41 1   
    42    22    42 1   
    43    23    43 1   
    44    24    44 1   
@<TRIPOS>SUBSTRUCTURE
     1 79J         1 TEMP              0 ****  ****    0 ROOT
