@<TRIPOS>MOLECULE
molecule
   44    44     1     0     0
SMALL
bcc


@<TRIPOS>ATOM
      1 C1           1.5070     0.0000     0.0000 c          1 79J       0.858600
      2 C10         -0.7170     4.2830     2.9900 c          1 79J       0.649100
      3 C11         -0.2030     5.5500     3.6240 c3         1 79J      -0.175100
      4 O1B          2.1110    -0.8600    -0.5960 o          1 79J      -0.828800
      5 C2           0.0000     0.0000     0.0000 c3         1 79J       0.258600
      6 C3          -0.5100     0.0000     1.4430 c3         1 79J      -0.140400
      7 C4          -0.0450     1.2820     2.1410 c3         1 79J       0.117100
      8 O4          -0.5870     1.3270     3.4870 os         1 79J      -0.417900
      9 C5          -0.5470     2.4930     1.3470 c3         1 79J       0.094700
     10 C6          -0.0350     2.3960    -0.0930 c3         1 79J       0.144100
     11 C7          -0.5800     3.5700    -0.9080 c3         1 79J       0.160100
     12 C8          -0.1740     3.4050    -2.3740 c3         1 79J       0.141100
     13 C9          -0.8230     4.5110    -3.2100 c3         1 79J       0.095400
     14 O10         -1.7300     3.7640     3.4070 o          1 79J      -0.605100
     15 N5          -0.0470     3.7240     1.9630 ns         1 79J      -0.573900
     16 C            0.1540     0.7730     4.4600 c          1 79J       0.619100
     17 O            1.2180     0.2680     4.1960 o          1 79J      -0.543000
     18 CH3         -0.3440     0.7810     5.8830 c3         1 79J      -0.143100
     19 O1A          2.1780     0.9530     0.6660 o          1 79J      -0.828800
     20 O2          -0.4760    -1.1680    -0.6740 oh         1 79J      -0.591800
     21 O6          -0.4770     1.1670    -0.6720 os         1 79J      -0.361600
     22 O7          -2.0060     3.5960    -0.8090 oh         1 79J      -0.576800
     23 O8          -0.6090     2.1300    -2.8500 oh         1 79J      -0.541800
     24 O9          -0.3510     4.4270    -4.5570 oh         1 79J      -0.613800
     25 H1          -0.8490     5.8290     4.4480 hc         1 79J       0.050367
     26 H2          -0.1940     6.3450     2.8880 hc         1 79J       0.050367
     27 H3           0.8030     5.3880     3.9920 hc         1 79J       0.050367
     28 H4          -0.1110    -0.8610     1.9660 hc         1 79J       0.049700
     29 H5          -1.5920    -0.0390     1.4430 hc         1 79J       0.049700
     30 H6           1.0380     1.2990     2.1800 h1         1 79J       0.153700
     31 H7          -1.6300     2.4980     1.3440 h1         1 79J       0.093700
     32 H8           1.0480     2.4240    -0.0910 h1         1 79J       0.117700
     33 H9          -0.1740     4.4980    -0.5230 h1         1 79J       0.028700
     34 H10          0.9040     3.4740    -2.4590 h1         1 79J       0.047700
     35 H11         -0.5640     5.4770    -2.7960 h1         1 79J       0.023200
     36 H12         -1.9000     4.3890    -3.1970 h1         1 79J       0.023200
     37 H13          0.8050     4.1380     1.6370 hn         1 79J       0.310500
     38 H14          0.2580     1.4630     6.4720 hc         1 79J       0.057033
     39 H15         -0.2690    -0.2170     6.2980 hc         1 79J       0.057033
     40 H16         -1.3780     1.1040     5.9020 hc         1 79J       0.057033
     41 H18         -0.2270    -1.9350    -0.1870 ho         1 79J       0.412000
     42 H19         -2.2970     4.4840    -0.6820 ho         1 79J       0.378000
     43 H20         -0.1940     1.9440    -3.6760 ho         1 79J       0.399000
     44 H21         -0.5840     5.2150    -5.0200 ho         1 79J       0.392000
@<TRIPOS>BOND
     1    23    12 1
     2    24    13 1
     3    12    13 1
     4    12    11 1
     5    22    11 1
     6    11    10 1
     7    10    21 1
     8    10     9 1
     9    21     5 1
    10     3     2 1
    11     2    15 1
    12     2    14 2
    13    15     9 1
    14     9     7 1
    15    20     5 1
    16     5     1 1
    17     5     6 1
    18     4     1 1
    19     1    19 1
    20     7     6 1
    21     7     8 1
    22     8    16 1
    23    17    16 2
    24    16    18 1
    25     3    25 1
    26     3    26 1
    27     3    27 1
    28     6    28 1
    29     6    29 1
    30     7    30 1
    31     9    31 1
    32    10    32 1
    33    11    33 1
    34    12    34 1
    35    13    35 1
    36    13    36 1
    37    15    37 1
    38    18    38 1
    39    18    39 1
    40    18    40 1
    41    20    41 1
    42    22    42 1
    43    23    43 1
    44    24    44 1
@<TRIPOS>SUBSTRUCTURE
     1 79J         1 TEMP              0 ****  ****    0 ROOT
