@<TRIPOS>MOLECULE
79K
   51    53     1     0     0
SMALL
bcc


@<TRIPOS>ATOM
      1 O12          0.0000     0.0000     0.0000 o          1 79K      -0.581800
      2 O13          2.1990     0.0000     1.1900 o          1 79K      -0.581800
      3 O22          4.5260     1.8140    -3.1830 o          1 79K      -0.534100
      4 C01          3.4250    -6.0080    -2.1850 c3         1 79K       0.006567
      5 C03          4.3820    -4.5270    -3.9560 c3         1 79K       0.006567
      6 C04          2.0010    -5.2680    -4.1010 c3         1 79K       0.006567
      7 C05          2.7000    -3.6430    -2.3620 ca         1 79K      -0.012300
      8 C06          3.5570    -3.0870    -1.4330 ca         1 79K      -0.136500
      9 C07          3.1680    -1.9730    -0.7110 ca         1 79K       0.012000
     10 C08          1.9190    -1.4170    -0.9200 ca         1 79K      -0.169500
     11 C09          1.0610    -1.9740    -1.8500 ca         1 79K       0.012000
     12 C10          1.4540    -3.0840    -2.5750 ca         1 79K      -0.136500
     13 C15          1.3980     1.5370    -2.1470 ca         1 79K       0.104600
     14 C16          0.0940     1.1740    -2.4620 ca         1 79K      -0.180000
     15 C17         -0.3920     1.3770    -3.7360 ca         1 79K      -0.047000
     16 C18          0.4140     1.9420    -4.7150 ca         1 79K      -0.068600
     17 C19          1.7090     2.3080    -4.4220 ca         1 79K      -0.034000
     18 C20          2.2140     2.1160    -3.1320 ca         1 79K      -0.206600
     19 C21          3.5990     2.5060    -2.8120 c          1 79K       0.663300
     20 C23          3.8590     3.7400    -2.0380 ca         1 79K      -0.242600
     21 C24          5.1680     4.1790    -1.8040 ca         1 79K       0.009500
     22 C25          5.3650     5.3350    -1.0780 ca         1 79K      -0.379800
     23 C27          3.0930     5.6480    -0.8120 ca         1 79K      -0.379800
     24 C28          2.8040     4.5040    -1.5270 ca         1 79K       0.009500
     25 N14          1.8880     1.3340    -0.8640 nu         1 79K      -0.400500
     26 N26          4.3420     6.0240    -0.6090 na         1 79K       0.823600
     27 O29          4.5910     7.2050     0.1320 o          1 79K      -0.522000
     28 S11          1.4210     0.0000     0.0000 sy         1 79K       1.044200
     29 Cl1         -0.2140     2.1890    -6.3140 cl         1 79K      -0.013400
     30 H1           4.3140    -5.7770    -1.6120 hc         1 79K       0.009144
     31 H2           3.5850    -6.9180    -2.7500 hc         1 79K       0.009144
     32 H3           2.5870    -6.1430    -1.5130 hc         1 79K       0.009144
     33 H4           4.6020    -5.3450    -4.6310 hc         1 79K       0.009144
     34 H5           4.2270    -3.6200    -4.5270 hc         1 79K       0.009144
     35 H6           5.2130    -4.3880    -3.2750 hc         1 79K       0.009144
     36 H7           1.7900    -4.4540    -4.7830 hc         1 79K       0.009144
     37 H8           2.3160    -6.1390    -4.6630 hc         1 79K       0.009144
     38 H9           1.1070    -5.5070    -3.5360 hc         1 79K       0.009144
     39 H10          4.5360    -3.5230    -1.2690 ha         1 79K       0.122500
     40 H11          3.8400    -1.5370     0.0180 ha         1 79K       0.122000
     41 H12          0.0840    -1.5380    -2.0160 ha         1 79K       0.122000
     42 H13          0.7810    -3.5200    -3.3040 ha         1 79K       0.122500
     43 H14         -0.5420     0.7290    -1.7050 ha         1 79K       0.184000
     44 H15         -1.4100     1.0920    -3.9760 ha         1 79K       0.118000
     45 H16          2.3330     2.7520    -5.1880 ha         1 79K       0.120000
     46 H17          6.0120     3.6190    -2.1870 ha         1 79K       0.134500
     47 H18          6.3740     5.6820    -0.8890 h4         1 79K       0.171000
     48 H19          2.2830     6.2450    -0.4100 h4         1 79K       0.171000
     49 H20          1.7760     4.2020    -1.6900 ha         1 79K       0.134500
     50 H21          2.4890     2.0160    -0.4450 hn         1 79K       0.349800
     51 C02          3.1250    -4.8570    -3.1480 c3         1 79K      -0.025700
@<TRIPOS>BOND
     1     1    28 2   
     2     2    28 2   
     3     3    19 2   
     4     4    30 1   
     5     4    31 1   
     6     4    32 1   
     7     4    51 1   
     8     5    33 1   
     9     5    34 1   
    10     5    35 1   
    11     5    51 1   
    12     6    36 1   
    13     6    37 1   
    14     6    38 1   
    15     6    51 1   
    16     7     8 ar  
    17     7    12 ar  
    18     7    51 1   
    19     8     9 ar  
    20     8    39 1   
    21     9    10 ar  
    22     9    40 1   
    23    10    11 ar  
    24    10    28 1   
    25    11    12 ar  
    26    11    41 1   
    27    12    42 1   
    28    13    14 ar  
    29    13    18 ar  
    30    13    25 1   
    31    14    15 ar  
    32    14    43 1   
    33    15    16 ar  
    34    15    44 1   
    35    16    17 ar  
    36    16    29 1   
    37    17    18 ar  
    38    17    45 1   
    39    18    19 1   
    40    19    20 1   
    41    20    21 ar  
    42    20    24 ar  
    43    21    22 ar  
    44    21    46 1   
    45    22    26 1   
    46    22    47 1   
    47    23    24 ar  
    48    23    26 2   
    49    23    48 1   
    50    24    49 1   
    51    25    28 1   
    52    25    50 1   
    53    26    27 1   
@<TRIPOS>SUBSTRUCTURE
     1 79K         1 TEMP              0 ****  ****    0 ROOT
