@<TRIPOS>MOLECULE
79L
   86    88     1     0     0
SMALL
bcc


@<TRIPOS>ATOM
      1 C29          0.0000     0.0000     0.0000 c          1 79L       0.568100
      2 O37          1.2130     0.0000     0.0000 o          1 79L      -0.640100
      3 C30         -0.7540     0.0000     1.3050 c3         1 79L       0.087800
      4 N31          0.2000     0.0010     2.4210 n3         1 79L      -0.505600
      5 O34          1.3000    -0.9270     4.8340 os         1 79L      -0.416600
      6 C36         -0.4860     0.2400     3.7000 c3         1 79L       0.097800
      7 C32          0.9600    -1.2570     2.4650 c3         1 79L       0.097800
      8 C35          0.5500     0.2910     4.8260 c3         1 79L       0.216900
      9 C33          1.9810    -1.1900     3.6030 c3         1 79L       0.216900
     10 N28         -0.6730     0.0050    -1.1680 ns         1 79L      -0.181900
     11 C27          0.0600     0.0100    -2.4360 c3         1 79L      -0.050300
     12 C26         -0.8030    -0.5850    -3.5180 c          1 79L       0.562100
     13 O39         -1.9210    -0.9760    -3.2560 o          1 79L      -0.654100
     14 C38          0.4240     1.4490    -2.8080 c3         1 79L      -0.016100
     15 N25         -0.3330    -0.6830    -4.7770 ns         1 79L      -0.161900
     16 C24         -1.1730    -1.2630    -5.8290 c3         1 79L      -0.055300
     17 C40         -2.0830    -0.1790    -6.4100 c3         1 79L       0.028900
     18 C41         -3.0430     0.2940    -5.3490 ca         1 79L      -0.126300
     19 C48         -4.2650    -0.3340    -5.1960 ca         1 79L      -0.049500
     20 C47         -5.1470     0.0960    -4.2230 ca         1 79L      -0.167500
     21 C44         -4.8060     1.1590    -3.3990 ca         1 79L       0.155100
     22 O45         -5.6700     1.5840    -2.4420 os         1 79L      -0.308900
     23 C46         -5.2520     2.6840    -1.6310 c3         1 79L       0.245700
     24 C43         -3.5780     1.7870    -3.5550 ca         1 79L      -0.167500
     25 C42         -2.6970     1.3490    -4.5250 ca         1 79L      -0.049500
     26 C23         -0.2970    -1.8200    -6.9210 c          1 79L       0.565100
     27 O49          0.9110    -1.7420    -6.8300 o          1 79L      -0.627100
     28 N22         -0.8540    -2.4060    -7.9990 ns         1 79L      -0.181900
     29 C8          -0.0020    -2.9490    -9.0610 c3         1 79L       0.001700
     30 C9           0.3660    -1.8320   -10.0400 c3         1 79L       0.178100
     31 O21          0.9700    -0.7530    -9.3260 oh         1 79L      -0.556800
     32 C10          1.3500    -2.3710   -11.0810 c3         1 79L      -0.090700
     33 C11          2.6670    -2.7390   -10.3940 c3         1 79L       0.000900
     34 C12          1.6100    -1.2970   -12.1400 c3         1 79L       0.227400
     35 O13          2.4560    -1.8300   -13.1600 oh         1 79L      -0.588800
     36 C7          -0.7560    -4.0530    -9.8050 c3         1 79L       0.014900
     37 C6          -1.0290    -5.1970    -8.8640 ca         1 79L      -0.098300
     38 C5          -0.1110    -6.2220    -8.7350 ca         1 79L      -0.098500
     39 C4          -0.3600    -7.2690    -7.8670 ca         1 79L      -0.093000
     40 C3          -1.5280    -7.2910    -7.1280 ca         1 79L      -0.098000
     41 C2          -2.4450    -6.2650    -7.2550 ca         1 79L      -0.093000
     42 C1          -2.1970    -5.2180    -8.1230 ca         1 79L      -0.098500
     43 H1          -1.3760    -0.8850     1.3620 h1         1 79L       0.022200
     44 H2          -1.3770     0.8840     1.3610 h1         1 79L       0.022200
     45 H4          -1.0150     1.1840     3.6540 h1         1 79L       0.022950
     46 H5          -1.1860    -0.5650     3.8900 h1         1 79L       0.022950
     47 H6           1.4780    -1.3980     1.5240 h1         1 79L       0.022950
     48 H7           0.2810    -2.0830     2.6380 h1         1 79L       0.022950
     49 H8           1.2200     1.1260     4.6620 h1         1 79L       0.012950
     50 H9           0.0430     0.4080     5.7770 h1         1 79L       0.012950
     51 H10          2.5040    -2.1360     3.6750 h1         1 79L       0.012950
     52 H11          2.6890    -0.3940     3.4060 h1         1 79L       0.012950
     53 H12         -1.6730    -0.0280    -1.1690 hn         1 79L       0.198500
     54 H13          0.9650    -0.5760    -2.3330 h1         1 79L       0.069700
     55 H14          0.2890     1.5920    -3.8730 hc         1 79L       0.016367
     56 H15          1.4580     1.6390    -2.5460 hc         1 79L       0.016367
     57 H16         -0.2170     2.1350    -2.2680 hc         1 79L       0.016367
     58 H17          0.6010    -0.3930    -4.9870 hn         1 79L       0.204500
     59 H18         -1.7790    -2.0570    -5.4110 h1         1 79L       0.070700
     60 H19         -1.4800     0.6550    -6.7490 hc         1 79L       0.020700
     61 H20         -2.6400    -0.5840    -7.2460 hc         1 79L       0.020700
     62 H21         -4.5320    -1.1640    -5.8390 ha         1 79L       0.100500
     63 H22         -6.1050    -0.3960    -4.1030 ha         1 79L       0.115500
     64 H23         -5.0330     3.5360    -2.2630 h1         1 79L      -0.003967
     65 H24         -6.0430     2.9420    -0.9370 h1         1 79L      -0.003967
     66 H25         -4.3630     2.4060    -1.0770 h1         1 79L      -0.003967
     67 H26         -3.3070     2.6150    -2.9110 ha         1 79L       0.115500
     68 H27         -1.7390     1.8390    -4.6470 ha         1 79L       0.100500
     69 H28         -1.8500    -2.4590    -8.0810 hn         1 79L       0.176500
     70 H29          0.9010    -3.3590    -8.6250 h1         1 79L       0.082700
     71 H30         -0.5290    -1.4800   -10.5380 h1         1 79L      -0.004300
     72 H31          0.6430     0.0670    -9.6590 ho         1 79L       0.380000
     73 H32          0.9300    -3.2510   -11.5540 hc         1 79L       0.042700
     74 H33          3.0290    -1.8890    -9.8280 hc         1 79L       0.016367
     75 H34          3.4000    -3.0130   -11.1430 hc         1 79L       0.016367
     76 H35          2.5040    -3.5750    -9.7250 hc         1 79L       0.016367
     77 H36          0.6690    -0.9870   -12.5780 h1         1 79L      -0.014300
     78 H37          2.0920    -0.4440   -11.6790 h1         1 79L      -0.014300
     79 H38          2.4770    -1.2380   -13.8930 ho         1 79L       0.389000
     80 H39         -1.6940    -3.6610   -10.1800 hc         1 79L       0.030700
     81 H40         -0.1540    -4.4040   -10.6350 hc         1 79L       0.030700
     82 H41          0.8050    -6.2050    -9.3150 ha         1 79L       0.104000
     83 H42          0.3600    -8.0720    -7.7670 ha         1 79L       0.104500
     84 H43         -1.7230    -8.1110    -6.4480 ha         1 79L       0.105000
     85 H44         -3.3600    -6.2820    -6.6760 ha         1 79L       0.104500
     86 H45         -2.9170    -4.4150    -8.2230 ha         1 79L       0.104000
@<TRIPOS>BOND
     1     1     2 2   
     2     1     3 1   
     3     1    10 1   
     4     3     4 1   
     5     3    43 1   
     6     3    44 1   
     7     4     6 1   
     8     4     7 1   
     9     5     8 1   
    10     5     9 1   
    11     6     8 1   
    12     6    45 1   
    13     6    46 1   
    14     7     9 1   
    15     7    47 1   
    16     7    48 1   
    17     8    49 1   
    18     8    50 1   
    19     9    51 1   
    20     9    52 1   
    21    10    11 1   
    22    10    53 1   
    23    11    12 1   
    24    11    14 1   
    25    11    54 1   
    26    12    13 2   
    27    12    15 1   
    28    14    55 1   
    29    14    56 1   
    30    14    57 1   
    31    15    16 1   
    32    15    58 1   
    33    16    17 1   
    34    16    26 1   
    35    16    59 1   
    36    17    18 1   
    37    17    60 1   
    38    17    61 1   
    39    18    19 ar  
    40    18    25 ar  
    41    19    20 ar  
    42    19    62 1   
    43    20    21 ar  
    44    20    63 1   
    45    21    22 1   
    46    21    24 ar  
    47    22    23 1   
    48    23    64 1   
    49    23    65 1   
    50    23    66 1   
    51    24    25 ar  
    52    24    67 1   
    53    25    68 1   
    54    26    27 2   
    55    26    28 1   
    56    28    29 1   
    57    28    69 1   
    58    29    30 1   
    59    29    36 1   
    60    29    70 1   
    61    30    31 1   
    62    30    32 1   
    63    30    71 1   
    64    31    72 1   
    65    32    33 1   
    66    32    34 1   
    67    32    73 1   
    68    33    74 1   
    69    33    75 1   
    70    33    76 1   
    71    34    35 1   
    72    34    77 1   
    73    34    78 1   
    74    35    79 1   
    75    36    37 1   
    76    36    80 1   
    77    36    81 1   
    78    37    38 ar  
    79    37    42 ar  
    80    38    39 ar  
    81    38    82 1   
    82    39    40 ar  
    83    39    83 1   
    84    40    41 ar  
    85    40    84 1   
    86    41    42 ar  
    87    41    85 1   
    88    42    86 1   
@<TRIPOS>SUBSTRUCTURE
     1 79L         1 TEMP              0 ****  ****    0 ROOT
