@<TRIPOS>MOLECULE
molecule
   59    58     1     0     0
SMALL
bcc


@<TRIPOS>ATOM
      1 C19          0.0000     0.0000     0.0000 c3         1 79M      -0.092100
      2 C8           8.1500     0.0000     5.7510 c2         1 79M      -0.341200
      3 C7           9.0210    -0.8980     6.1390 c2         1 79M      -0.336200
      4 C15          1.5290     0.0000     0.0000 c3         1 79M      -0.084400
      5 C9           7.6480    -0.0010     4.3300 c3         1 79M      -0.145200
      6 C6           9.6490    -1.8240     5.1280 c3         1 79M      -0.150200
      7 C21         17.6820    -4.0970     2.7850 c3         1 79M       0.136400
      8 C14          2.0390     0.0000     1.4430 c3         1 79M      -0.081400
      9 C10          6.1180     0.0010     4.3300 c3         1 79M      -0.034400
     10 C5          11.1720    -1.7480     5.2450 c3         1 79M      -0.033400
     11 C13          3.5700    -0.0000     1.4440 c3         1 79M      -0.082400
     12 C11          5.6090     0.0000     2.8860 c3         1 79M      -0.087400
     13 C4          11.8100    -2.6880     4.2190 c3         1 79M      -0.089400
     14 C12          4.0790     0.0000     2.8860 c3         1 79M      -0.080400
     15 C3          13.3330    -2.6110     4.3360 c3         1 79M      -0.070400
     16 C2          13.9710    -3.5500     3.3100 c3         1 79M      -0.125400
     17 C24         19.9020    -4.7920     1.8750 c3         1 79M       0.131400
     18 C22         18.3910    -5.0140     1.7860 c3         1 79M       0.149100
     19 O19         15.9790    -2.7450     4.2430 o          1 79M      -0.549000
     20 C1          15.4720    -3.4760     3.4240 c          1 79M       0.632100
     21 O20         16.2450    -4.2200     2.6180 os         1 79M      -0.426900
     22 O23         18.0900    -6.3760     2.0920 oh         1 79M      -0.590800
     23 O25         20.5570    -5.5610     0.8640 oh         1 79M      -0.605800
     24 H21C        13.6450    -4.5660     3.4990 hc         1 79M       0.071700
     25 H22C        13.6700    -3.2540     2.3130 hc         1 79M       0.071700
     26 H31C        13.6590    -1.5950     4.1470 hc         1 79M       0.062200
     27 H32C        13.6350    -2.9070     5.3330 hc         1 79M       0.062200
     28 H41C        11.4840    -3.7030     4.4080 hc         1 79M       0.040200
     29 H42C        11.5090    -2.3910     3.2220 hc         1 79M       0.040200
     30 H51C        11.4990    -0.7330     5.0560 hc         1 79M       0.061200
     31 H52C        11.4730    -2.0450     6.2420 hc         1 79M       0.061200
     32 H61C         9.3480    -1.5270     4.1310 hc         1 79M       0.034200
     33 H62C         9.3230    -2.8390     5.3170 hc         1 79M       0.034200
     34 H7           8.5180    -1.8050     5.8250 ha         1 79M       0.329000
     35 H8           8.7100     0.4860     4.9620 ha         1 79M       0.330000
     36 H91          8.0080    -0.8860     3.8200 hc         1 79M       0.033700
     37 H92          8.0100     0.8830     3.8190 hc         1 79M       0.033700
     38 H101         5.7570     0.8860     4.8400 hc         1 79M       0.058700
     39 H102         5.7560    -0.8830     4.8410 hc         1 79M       0.058700
     40 H111         5.9700    -0.8850     2.3760 hc         1 79M       0.040700
     41 H112         5.9700     0.8840     2.3750 hc         1 79M       0.040700
     42 H121         3.7180     0.8850     3.3960 hc         1 79M       0.045200
     43 H122         3.7170    -0.8840     3.3970 hc         1 79M       0.045200
     44 H131         3.9310    -0.8850     0.9330 hc         1 79M       0.040700
     45 H132         3.9310     0.8840     0.9330 hc         1 79M       0.040700
     46 H141         1.6780     0.8840     1.9530 hc         1 79M       0.042200
     47 H142         1.6780    -0.8840     1.9530 hc         1 79M       0.042200
     48 H151         1.8910     0.8990    -0.4850 hc         1 79M       0.039700
     49 H152         1.8910    -0.8700    -0.5350 hc         1 79M       0.039700
     50 H191        -0.3610    -0.8850     0.5110 hc         1 79M       0.033367
     51 H192        -0.3610     0.0000    -1.0210 hc         1 79M       0.033367
     52 H193        -0.3610     0.8840     0.5110 hc         1 79M       0.033367
     53 H211        17.9550    -4.3820     3.7940 h1         1 79M       0.059700
     54 H212        17.9800    -3.0710     2.6070 h1         1 79M       0.059700
     55 H22         18.0510    -4.7860     0.7830 h1         1 79M       0.052700
     56 H23         17.6720    -6.7800     1.3500 ho         1 79M       0.412000
     57 H241        20.2560    -5.1030     2.8510 h1         1 79M       0.032700
     58 H242        20.1230    -3.7420     1.7290 h1         1 79M       0.032700
     59 H25         21.4780    -5.3620     0.8640 ho         1 79M       0.407000
@<TRIPOS>BOND
     1    20    16 1
     2    20    19 2
     3    20    21 1
     4    16    15 1
     5    15    13 1
     6    13    10 1
     7    10     6 1
     8     6     3 1
     9     3     2 2
    10     2     5 1
    11     5     9 1
    12     9    12 1
    13    12    14 1
    14    14    11 1
    15    11     8 1
    16     8     4 1
    17     4     1 1
    18    21     7 1
    19     7    18 1
    20    18    22 1
    21    18    17 1
    22    17    23 1
    23    16    24 1
    24    16    25 1
    25    15    26 1
    26    15    27 1
    27    13    28 1
    28    13    29 1
    29    10    30 1
    30    10    31 1
    31     6    32 1
    32     6    33 1
    33     3    34 1
    34     2    35 1
    35     5    36 1
    36     5    37 1
    37     9    38 1
    38     9    39 1
    39    12    40 1
    40    12    41 1
    41    14    42 1
    42    14    43 1
    43    11    44 1
    44    11    45 1
    45     8    46 1
    46     8    47 1
    47     4    48 1
    48     4    49 1
    49     1    50 1
    50     1    51 1
    51     1    52 1
    52     7    53 1
    53     7    54 1
    54    18    55 1
    55    22    56 1
    56    17    57 1
    57    17    58 1
    58    23    59 1
@<TRIPOS>SUBSTRUCTURE
     1 79M         1 TEMP              0 ****  ****    0 ROOT
