@<TRIPOS>MOLECULE
79M
   59    58     1     0     0
SMALL
bcc


@<TRIPOS>ATOM
      1 C19        -0.6350    0.5840    0.3990 c3        1 79M     -0.092100
      2 C8          8.1290   -0.1300    5.1270 c2        1 79M     -0.171200
      3 C7          9.3700   -0.5710    5.3610 c2        1 79M     -0.176200
      4 C15         0.7600    0.0160    0.3660 c3        1 79M     -0.080400
      5 C9          7.3320   -0.5070    3.9360 c3        1 79M     -0.049200
      6 C6         10.0970   -1.4970    4.4600 c3        1 79M     -0.048200
      7 C21        17.9760   -4.7770    3.3840 c3        1 79M      0.138400
      8 C14         1.5510    0.4140    1.5940 c3        1 79M     -0.079400
      9 C10         5.9320    0.0680    3.9760 c3        1 79M     -0.077400
     10 C5         11.5200   -1.7420    4.9170 c3        1 79M     -0.077400
     11 C13         2.9510   -0.1590    1.5580 c3        1 79M     -0.079400
     12 C11         5.1420   -0.3330    2.7490 c3        1 79M     -0.079400
     13 C4         12.2380   -2.6870    3.9780 c3        1 79M     -0.079400
     14 C12         3.7410    0.2410    2.7850 c3        1 79M     -0.079400
     15 C3         13.6600   -2.9310    4.4360 c3        1 79M     -0.079400
     16 C2         14.3780   -3.8630    3.4820 c3        1 79M     -0.127400
     17 C24        20.1100   -4.2740    2.1540 c3        1 79M      0.092400
     18 C22        18.7510   -4.9800    2.0810 c3        1 79M      0.140100
     19 O19        16.1120   -4.3930    5.1580 o         1 79M     -0.541000
     20 C1         15.7380   -4.2180    3.9970 c         1 79M      0.634100
     21 O20        16.6560   -4.3660    2.9930 os        1 79M     -0.444900
     22 O23        18.9280   -6.3810    1.9320 oh        1 79M     -0.599800
     23 O25        20.7690   -4.5680    0.9330 oh        1 79M     -0.611800
     24 H21C       13.8050   -4.8230    3.3670 hc        1 79M      0.079200
     25 H22C       14.4690   -3.3960    2.4660 hc        1 79M      0.079200
     26 H31C       14.2120   -1.9570    4.4970 hc        1 79M      0.057700
     27 H32C       13.6620   -3.3770    5.4660 hc        1 79M      0.057700
     28 H41C       11.6840   -3.6610    3.9290 hc        1 79M      0.041200
     29 H42C       12.2440   -2.2560    2.9420 hc        1 79M      0.041200
     30 H51C       12.0730   -0.7660    4.9660 hc        1 79M      0.044700
     31 H52C       11.5150   -2.1720    5.9530 hc        1 79M      0.044700
     32 H61C        9.5440   -2.4760    4.4100 hc        1 79M      0.047700
     33 H62C       10.1030   -1.0770    3.4170 hc        1 79M      0.047700
     34 H7          9.9130   -0.2520    6.2660 ha        1 79M      0.123000
     35 H8          7.6400    0.5560    5.8380 ha        1 79M      0.123000
     36 H91         7.8590   -0.1510    3.0080 hc        1 79M      0.047700
     37 H92         7.2760   -1.6290    3.8630 hc        1 79M      0.047700
     38 H101        5.4030   -0.2900    4.8980 hc        1 79M      0.041700
     39 H102        5.9860    1.1870    4.0390 hc        1 79M      0.041700
     40 H111        5.0880   -1.4520    2.6850 hc        1 79M      0.039700
     41 H112        5.6710    0.0250    1.8260 hc        1 79M      0.039700
     42 H121        3.2120   -0.1190    3.7070 hc        1 79M      0.039700
     43 H122        3.7950    1.3590    2.8500 hc        1 79M      0.039700
     44 H131        2.8980   -1.2780    1.4920 hc        1 79M      0.039700
     45 H132        3.4810    0.2010    0.6360 hc        1 79M      0.039700
     46 H141        1.0210    0.0530    2.5150 hc        1 79M      0.039700
     47 H142        1.6040    1.5330    1.6610 hc        1 79M      0.039700
     48 H151        1.2930    0.3770   -0.5540 hc        1 79M      0.038700
     49 H152        0.7100   -1.1030    0.3010 hc        1 79M      0.038700
     50 H191       -0.6060    1.7000    0.4400 hc        1 79M      0.032700
     51 H192       -1.2000    0.2790   -0.5150 hc        1 79M      0.032700
     52 H193       -1.1900    0.2160    1.2960 hc        1 79M      0.032700
     53 H211       17.9100   -5.7300    3.9710 h1        1 79M      0.068200
     54 H212       18.4270   -3.9700    4.0170 h1        1 79M      0.068200
     55 H22        18.1660   -4.5800    1.2050 h1        1 79M      0.069700
     56 H23        19.4770   -6.5060    1.1460 ho        1 79M      0.421000
     57 H241       19.9670   -3.1670    2.2590 h1        1 79M      0.037700
     58 H242       20.7060   -4.6630    3.0210 h1        1 79M      0.037700
     59 H25        21.6600   -4.2070    1.0020 ho        1 79M      0.410000
@<TRIPOS>BOND
     1    1    4 1   
     2    1   50 1   
     3    1   51 1   
     4    1   52 1   
     5    2    3 2   
     6    2    5 1   
     7    2   35 1   
     8    3    6 1   
     9    3   34 1   
    10    4    8 1   
    11    4   48 1   
    12    4   49 1   
    13    5    9 1   
    14    5   36 1   
    15    5   37 1   
    16    6   10 1   
    17    6   32 1   
    18    6   33 1   
    19    7   18 1   
    20    7   21 1   
    21    7   53 1   
    22    7   54 1   
    23    8   11 1   
    24    8   46 1   
    25    8   47 1   
    26    9   12 1   
    27    9   38 1   
    28    9   39 1   
    29   10   13 1   
    30   10   30 1   
    31   10   31 1   
    32   11   14 1   
    33   11   44 1   
    34   11   45 1   
    35   12   14 1   
    36   12   40 1   
    37   12   41 1   
    38   13   15 1   
    39   13   28 1   
    40   13   29 1   
    41   14   42 1   
    42   14   43 1   
    43   15   16 1   
    44   15   26 1   
    45   15   27 1   
    46   16   20 1   
    47   16   24 1   
    48   16   25 1   
    49   17   18 1   
    50   17   23 1   
    51   17   57 1   
    52   17   58 1   
    53   18   22 1   
    54   18   55 1   
    55   19   20 2   
    56   20   21 1   
    57   22   56 1   
    58   23   59 1   
@<TRIPOS>SUBSTRUCTURE
     1 79M         1 TEMP              0 ****  ****    0 ROOT
