@<TRIPOS>MOLECULE
molecule
   59    58     1     0     0
SMALL
bcc


@<TRIPOS>ATOM
      1 C            0.0000     0.0000     0.0000 c3         1 79N      -0.092100
      2 O           15.9810    -2.7410     4.2440 o          1 79N      -0.549000
      3 C1           1.5300     0.0000     0.0000 c3         1 79N      -0.084400
      4 O1          16.2470    -4.2140     2.6180 os         1 79N      -0.427900
      5 C2           2.0390     0.0000     1.4430 c3         1 79N      -0.081400
      6 O2          18.1270    -4.5590     0.4560 oh         1 79N      -0.591800
      7 C3           3.5700     0.0000     1.4440 c3         1 79N      -0.082400
      8 C4           4.0790     0.0000     2.8860 c3         1 79N      -0.080400
      9 C5           5.6090     0.0010     2.8870 c3         1 79N      -0.087400
     10 C6           6.1180     0.0010     4.3300 c3         1 79N      -0.034400
     11 C7           7.6480     0.0010     4.3310 c3         1 79N      -0.145200
     12 C8           8.1500     0.0010     5.7510 c2         1 79N      -0.341200
     13 C9           9.0210    -0.8980     6.1400 c2         1 79N      -0.336200
     14 C10          9.6490    -1.8230     5.1290 c3         1 79N      -0.150200
     15 C11         11.1730    -1.7450     5.2450 c3         1 79N      -0.033400
     16 C12         11.8110    -2.6840     4.2190 c3         1 79N      -0.089400
     17 C13         13.3340    -2.6080     4.3360 c3         1 79N      -0.070400
     18 C14         13.9730    -3.5470     3.3100 c3         1 79N      -0.126400
     19 C15         15.4740    -3.4710     3.4250 c          1 79N       0.632100
     20 C16         17.6840    -4.0910     2.7860 c3         1 79N       0.136400
     21 C17         18.3930    -5.0070     1.7860 c3         1 79N       0.149100
     22 C18         19.9010    -4.9720     2.0440 c3         1 79N       0.131400
     23 H           -0.3610    -0.0000    -1.0210 hc         1 79N       0.033033
     24 HA          -0.3610     0.8850     0.5110 hc         1 79N       0.033033
     25 HB          -0.3610    -0.8850     0.5110 hc         1 79N       0.033033
     26 H1           1.8910     0.8850    -0.5110 hc         1 79N       0.039700
     27 H1A          1.8910    -0.8850    -0.5110 hc         1 79N       0.039700
     28 H2           1.6780     0.8840     1.9530 hc         1 79N       0.042200
     29 H2A          1.6780    -0.8850     1.9530 hc         1 79N       0.042200
     30 H3           3.9310     0.8850     0.9330 hc         1 79N       0.040700
     31 H3A          3.9310    -0.8840     0.9330 hc         1 79N       0.040700
     32 HO3         21.4700    -5.9520     1.4050 ho         1 79N       0.408000
     33 H4           3.7170     0.8850     3.3970 hc         1 79N       0.045200
     34 H4A          3.7180    -0.8840     3.3970 hc         1 79N       0.045200
     35 H5           5.9710    -0.8840     2.3770 hc         1 79N       0.040700
     36 H5A          5.9700     0.8850     2.3770 hc         1 79N       0.040700
     37 H6           5.7570     0.8850     4.8410 hc         1 79N       0.058700
     38 H6A          5.7570    -0.8840     4.8400 hc         1 79N       0.058700
     39 H7           8.0100    -0.8840     3.8210 hc         1 79N       0.033700
     40 H7A          8.0100     0.8850     3.8200 hc         1 79N       0.033700
     41 H8           8.7100     0.4870     4.9620 ha         1 79N       0.330000
     42 H9           8.5190    -1.8050     5.8260 ha         1 79N       0.329000
     43 H10          9.3480    -1.5260     4.1310 hc         1 79N       0.033700
     44 H10A         9.3240    -2.8390     5.3170 hc         1 79N       0.033700
     45 H11         11.4980    -0.7290     5.0570 hc         1 79N       0.061200
     46 H11A        11.4740    -2.0420     6.2430 hc         1 79N       0.061200
     47 H12         11.4850    -3.7000     4.4070 hc         1 79N       0.040200
     48 H12A        11.5100    -2.3870     3.2220 hc         1 79N       0.040200
     49 H13         13.6350    -2.9050     5.3330 hc         1 79N       0.062200
     50 H13A        13.6600    -1.5920     4.1480 hc         1 79N       0.062200
     51 H14         13.6720    -3.2500     2.3120 hc         1 79N       0.071700
     52 H14A        13.6470    -4.5630     3.4980 hc         1 79N       0.071700
     53 H16         17.9560    -4.3770     3.7940 h1         1 79N       0.060200
     54 H16A        17.9820    -3.0640     2.6090 h1         1 79N       0.060200
     55 H17         18.0300    -6.0210     1.9050 h1         1 79N       0.053700
     56 H18         20.0970    -5.2260     3.0790 h1         1 79N       0.032700
     57 H18A        20.2790    -3.9770     1.8390 h1         1 79N       0.032700
     58 HO2         17.7030    -5.2480    -0.0290 ho         1 79N       0.412000
     59 O3          20.5520    -5.9140     1.1900 oh         1 79N      -0.605800
@<TRIPOS>BOND
     1     1     3 1
     2     2    19 2
     3     3     5 1
     4     4    19 1
     5     4    20 1
     6     5     7 1
     7     6    21 1
     8     7     8 1
     9    59    22 1
    10     8     9 1
    11     9    10 1
    12    10    11 1
    13    11    12 1
    14    12    13 2
    15    13    14 1
    16    14    15 1
    17    15    16 1
    18    16    17 1
    19    17    18 1
    20    18    19 1
    21    20    21 1
    22    21    22 1
    23     1    23 1
    24     1    24 1
    25     1    25 1
    26     3    26 1
    27     3    27 1
    28     5    28 1
    29     5    29 1
    30     6    58 1
    31     7    30 1
    32     7    31 1
    33    59    32 1
    34     8    33 1
    35     8    34 1
    36     9    35 1
    37     9    36 1
    38    10    37 1
    39    10    38 1
    40    11    39 1
    41    11    40 1
    42    12    41 1
    43    13    42 1
    44    14    43 1
    45    14    44 1
    46    15    45 1
    47    15    46 1
    48    16    47 1
    49    16    48 1
    50    17    49 1
    51    17    50 1
    52    18    51 1
    53    18    52 1
    54    20    53 1
    55    20    54 1
    56    21    55 1
    57    22    56 1
    58    22    57 1
@<TRIPOS>SUBSTRUCTURE
     1 79N         1 TEMP              0 ****  ****    0 ROOT
