@<TRIPOS>MOLECULE
79N
   59    58     1     0     0
SMALL
bcc


@<TRIPOS>ATOM
      1 C          -0.6760    0.5760    0.4690 c3        1 79N     -0.092100
      2 O          16.7990   -2.1850    4.2910 o         1 79N     -0.541000
      3 C1          0.7810    0.2080    0.3560 c3        1 79N     -0.080400
      4 O1         16.8380   -3.7870    2.7360 os        1 79N     -0.444900
      5 C2          1.4670    0.2320    1.7050 c3        1 79N     -0.079400
      6 O2         19.5650   -4.3320    1.1220 oh        1 79N     -0.599800
      7 C3          2.9290   -0.1390    1.5870 c3        1 79N     -0.079400
      8 C4          3.6140   -0.1150    2.9370 c3        1 79N     -0.079400
      9 C5          5.0770   -0.4850    2.8180 c3        1 79N     -0.079400
     10 C6          5.7610   -0.4610    4.1680 c3        1 79N     -0.077400
     11 C7          7.2240   -0.8310    4.0460 c3        1 79N     -0.049200
     12 C8          7.9190   -0.8140    5.3550 c2        1 79N     -0.171200
     13 C9          9.2230   -1.0670    5.5070 c2        1 79N     -0.176200
     14 C10        10.1340   -1.3920    4.3840 c3        1 79N     -0.048200
     15 C11        11.5430   -1.6870    4.8540 c3        1 79N     -0.077400
     16 C12        12.4490   -2.0180    3.6880 c3        1 79N     -0.079400
     17 C13        13.8580   -2.3080    4.1600 c3        1 79N     -0.079400
     18 C14        14.7540   -2.6570    2.9910 c3        1 79N     -0.127400
     19 C15        16.1770   -2.8090    3.4300 c         1 79N      0.634100
     20 C16        18.2320   -3.9590    3.0380 c3        1 79N      0.138400
     21 C17        18.7430   -5.0140    2.0570 c3        1 79N      0.140100
     22 C18        19.5520   -6.0840    2.7990 c3        1 79N      0.092400
     23 H          -1.2130   -0.1390    1.1380 hc        1 79N      0.032700
     24 HA         -0.7910    1.6040    0.8920 hc        1 79N      0.032700
     25 HB         -1.1620    0.5520   -0.5360 hc        1 79N      0.032700
     26 H1          0.8770   -0.8160   -0.0930 hc        1 79N      0.038700
     27 H1A         1.2980    0.9220   -0.3380 hc        1 79N      0.038700
     28 H2          0.9530   -0.4830    2.4010 hc        1 79N      0.039700
     29 H2A         1.3730    1.2550    2.1560 hc        1 79N      0.039700
     30 H3          3.0230   -1.1620    1.1360 hc        1 79N      0.039700
     31 H3A         3.4430    0.5760    0.8910 hc        1 79N      0.039700
     32 HO3        20.6110   -7.6020    2.2440 ho        1 79N      0.410000
     33 H4          3.5200    0.9090    3.3870 hc        1 79N      0.039700
     34 H4A         3.1000   -0.8300    3.6320 hc        1 79N      0.039700
     35 H5          5.1700   -1.5080    2.3670 hc        1 79N      0.039700
     36 H5A         5.5900    0.2310    2.1230 hc        1 79N      0.039700
     37 H6          5.2470   -1.1760    4.8630 hc        1 79N      0.041700
     38 H6A         5.6680    0.5630    4.6180 hc        1 79N      0.041700
     39 H7          7.7350   -0.1190    3.3420 hc        1 79N      0.047700
     40 H7A         7.3150   -1.8550    3.5890 hc        1 79N      0.047700
     41 H8          7.2930   -0.5770    6.2310 ha        1 79N      0.123000
     42 H9          9.6830   -1.0400    6.5080 ha        1 79N      0.123000
     43 H10         9.7320   -2.2800    3.8210 hc        1 79N      0.047200
     44 H10A       10.1520   -0.5330    3.6580 hc        1 79N      0.047200
     45 H11        11.5280   -2.5460    5.5750 hc        1 79N      0.044700
     46 H11A       11.9500   -0.7980    5.4060 hc        1 79N      0.044700
     47 H12        12.4620   -1.1590    2.9660 hc        1 79N      0.041200
     48 H12A       12.0450   -2.9080    3.1370 hc        1 79N      0.041200
     49 H13        13.8460   -3.1570    4.8920 hc        1 79N      0.057700
     50 H13A       14.2750   -1.4140    4.6970 hc        1 79N      0.057700
     51 H14        14.7290   -1.8400    2.2200 hc        1 79N      0.079200
     52 H14A       14.4090   -3.6030    2.4970 hc        1 79N      0.079200
     53 H16        18.7660   -2.9820    2.9000 h1        1 79N      0.068200
     54 H16A       18.3270   -4.2960    4.1020 h1        1 79N      0.068200
     55 H17        17.8840   -5.5020    1.5150 h1        1 79N      0.069700
     56 H18        18.8970   -6.6310    3.5280 h1        1 79N      0.037700
     57 H18A       20.4140   -5.6150    3.3420 h1        1 79N      0.037700
     58 HO2        19.9430   -5.0080    0.5440 ho        1 79N      0.421000
     59 O3         20.0260   -6.9770    1.8030 oh        1 79N     -0.611800
@<TRIPOS>BOND
     1    1    3 1   
     2    1   23 1   
     3    1   24 1   
     4    1   25 1   
     5    2   19 2   
     6    3    5 1   
     7    3   26 1   
     8    3   27 1   
     9    4   19 1   
    10    4   20 1   
    11    5    7 1   
    12    5   28 1   
    13    5   29 1   
    14    6   21 1   
    15    6   58 1   
    16    7    8 1   
    17    7   30 1   
    18    7   31 1   
    19    8    9 1   
    20    8   33 1   
    21    8   34 1   
    22    9   10 1   
    23    9   35 1   
    24    9   36 1   
    25   10   11 1   
    26   10   37 1   
    27   10   38 1   
    28   11   12 1   
    29   11   39 1   
    30   11   40 1   
    31   12   13 2   
    32   12   41 1   
    33   13   14 1   
    34   13   42 1   
    35   14   15 1   
    36   14   43 1   
    37   14   44 1   
    38   15   16 1   
    39   15   45 1   
    40   15   46 1   
    41   16   17 1   
    42   16   47 1   
    43   16   48 1   
    44   17   18 1   
    45   17   49 1   
    46   17   50 1   
    47   18   19 1   
    48   18   51 1   
    49   18   52 1   
    50   20   21 1   
    51   20   53 1   
    52   20   54 1   
    53   21   22 1   
    54   21   55 1   
    55   22   56 1   
    56   22   57 1   
    57   22   59 1   
    58   32   59 1   
@<TRIPOS>SUBSTRUCTURE
     1 79N         1 TEMP              0 ****  ****    0 ROOT
