@<TRIPOS>MOLECULE
79O
   30    33     1     0     0
SMALL
bcc


@<TRIPOS>ATOM
      1 Cl1         0.9750    2.1290   -0.1100 cl        1 79O     -0.060400
      2 C9          2.1570    0.9150   -0.0510 ca        1 79O      0.056400
      3 C8          2.9200    0.7640    1.1140 ca        1 79O     -0.129000
      4 C7          3.9050   -0.2190    1.1760 ca        1 79O     -0.100000
      5 C6          4.1380   -1.0540    0.0820 ca        1 79O     -0.132000
      6 C5          3.3830   -0.9070   -1.0790 ca        1 79O     -0.097000
      7 C4          2.3890    0.0760   -1.1490 ca        1 79O     -0.149900
      8 C3          1.5830    0.1950   -2.3960 cc        1 79O      0.530500
      9 N2          0.2850   -0.1100   -2.3610 nd        1 79O     -0.559300
     10 C10        -0.3810    0.0210   -3.5620 cd        1 79O      0.172400
     11 C11        -1.7730   -0.2080   -3.9180 ca        1 79O     -0.100800
     12 C12        -2.9100   -0.6220   -3.2330 ca        1 79O     -0.026000
     13 C13        -4.1060   -0.7220   -3.9490 ca        1 79O     -0.056900
     14 Br1        -5.6620   -1.2770   -3.0660 br        1 79O     -0.078100
     15 C14        -4.1700   -0.4160   -5.3200 ca        1 79O     -0.072000
     16 C15        -3.0460    0.0010   -6.0290 ca        1 79O     -0.129000
     17 C16        -1.8570    0.1000   -5.3140 ca        1 79O      0.093100
     18 O2         -0.6200    0.4990   -5.8350 os        1 79O     -0.141200
     19 C1          0.2540    0.4400   -4.7470 cc        1 79O     -0.102100
     20 C2          1.6660    0.7720   -4.7950 c         1 79O      0.728700
     21 O1          2.3340    1.1490   -5.7690 o         1 79O     -0.596500
     22 N1          2.2870    0.6150   -3.5330 ns        1 79O     -0.474400
     23 H8          2.7380    1.4200    1.9790 ha        1 79O      0.155000
     24 H7          4.5000   -0.3370    2.0950 ha        1 79O      0.144000
     25 H6          4.9160   -1.8300    0.1350 ha        1 79O      0.145000
     26 H5          3.5570   -1.5710   -1.9400 ha        1 79O      0.148000
     27 H1          3.2560    0.8350   -3.4530 hn        1 79O      0.344500
     28 H12        -2.8540   -0.8600   -2.1590 ha        1 79O      0.169000
     29 H14        -5.1300   -0.5060   -5.8550 ha        1 79O      0.154000
     30 H15        -3.0910    0.2410   -7.1000 ha        1 79O      0.163000
@<TRIPOS>BOND
     1    1    2 1   
     2    2    3 ar  
     3    2    7 ar  
     4    3    4 ar  
     5    3   23 1   
     6    4    5 ar  
     7    4   24 1   
     8    5    6 ar  
     9    5   25 1   
    10    6    7 ar  
    11    6   26 1   
    12    7    8 1   
    13    8    9 2   
    14    8   22 1   
    15    9   10 1   
    16   10   11 1   
    17   10   19 2   
    18   11   12 ar  
    19   11   17 ar  
    20   12   13 ar  
    21   12   28 1   
    22   13   14 1   
    23   13   15 ar  
    24   15   16 ar  
    25   15   29 1   
    26   16   17 ar  
    27   16   30 1   
    28   17   18 1   
    29   18   19 1   
    30   19   20 1   
    31   20   21 2   
    32   20   22 1   
    33   22   27 1   
@<TRIPOS>SUBSTRUCTURE
     1 79O         1 TEMP              0 ****  ****    0 ROOT
