@<TRIPOS>MOLECULE
79P
   86    89     1     0     0
SMALL
bcc


@<TRIPOS>ATOM
      1 N1           0.0000     0.0000     0.0000 ns         1 79P      -0.177900
      2 C13         -2.0980     0.6040     1.0590 c          1 79P       0.578100
      3 C17         -5.0010     1.2920     3.2110 c3         1 79P       0.066800
      4 C26         -4.1620     2.9530     1.5710 c          1 79P       0.561100
      5 C50          3.9640    -1.2560    -0.4020 c3         1 79P       0.097800
      6 C51          5.4610    -1.1890    -0.0880 c3         1 79P       0.216900
      7 O52          6.1850    -0.9250    -1.2930 os         1 79P      -0.417600
      8 C53          5.8030     0.2920    -1.9390 c3         1 79P       0.216900
      9 C54          4.3090     0.2410    -2.2720 c3         1 79P       0.097800
     10 N55          3.5450     0.0010    -1.0380 n3         1 79P      -0.503600
     11 C56          2.1000     0.0010    -1.3060 c3         1 79P       0.086800
     12 C2           1.3480     0.0000     0.0000 c          1 79P       0.569100
     13 O3           1.9540     0.0000     1.0500 o          1 79P      -0.643100
     14 C11         -0.7320     0.0060     1.2700 c3         1 79P      -0.050300
     15 C12         -0.8780    -1.4290     1.7810 c3         1 79P      -0.013100
     16 N15         -2.8320     0.9980     2.1190 ns         1 79P      -0.148900
     17 C16         -4.1990     1.4880     1.9210 c3         1 79P      -0.054300
     18 C66         -5.1140    -0.1800     3.5120 cc         1 79P      -0.168400
     19 C67         -4.1390    -0.9980     4.2360 ca         1 79P      -0.094800
     20 C63         -2.9040    -0.7350     4.8330 ca         1 79P      -0.061000
     21 C62         -2.2200    -1.7450     5.4490 ca         1 79P      -0.121000
     22 C61         -2.7420    -3.0300     5.4870 ca         1 79P      -0.083000
     23 C60         -3.9580    -3.3120     4.9040 ca         1 79P      -0.098000
     24 C68         -4.6730    -2.2990     4.2720 ca         1 79P      -0.225200
     25 N69         -5.8820    -2.2610     3.6150 na         1 79P       0.362600
     26 C65         -6.1310    -0.9890     3.1740 cd         1 79P      -0.255100
     27 N28         -5.3110     3.6210     1.3440 ns         1 79P      -0.190900
     28 C29         -5.2710     5.0160     0.8970 c3         1 79P      -0.006300
     29 C30         -6.4320     5.2770    -0.0640 c3         1 79P       0.013900
     30 C41         -6.2460     4.4530    -1.3120 ca         1 79P      -0.093300
     31 C46         -6.7760     3.1780    -1.3840 ca         1 79P      -0.096500
     32 C45         -6.6050     2.4230    -2.5300 ca         1 79P      -0.092000
     33 C44         -5.9040     2.9420    -3.6020 ca         1 79P      -0.096000
     34 C43         -5.3740     4.2170    -3.5290 ca         1 79P      -0.092000
     35 C42         -5.5500     4.9740    -2.3870 ca         1 79P      -0.096500
     36 C31         -5.3930     5.9420     2.1080 c3         1 79P       0.178100
     37 O32         -4.3640     5.6330     3.0520 oh         1 79P      -0.558800
     38 C37         -5.2480     7.3970     1.6550 c3         1 79P      -0.084700
     39 C38         -3.8560     7.6080     1.0580 c3         1 79P       0.000900
     40 C39         -5.4360     8.3260     2.8550 c3         1 79P       0.226400
     41 O40         -5.4160     9.6850     2.4130 oh         1 79P      -0.589800
     42 H1          -0.5000    -0.0380    -0.8660 hn         1 79P       0.196500
     43 H2          -5.9920     1.7120     3.0870 hc         1 79P       0.021700
     44 H3          -4.4970     1.7910     4.0290 hc         1 79P       0.021700
     45 H5           3.7740    -2.0820    -1.0760 h1         1 79P       0.022450
     46 H6           5.6450    -0.3950     0.6250 h1         1 79P       0.012950
     47 H7           5.7840    -2.1370     0.3260 h1         1 79P       0.012950
     48 H8           5.9960     1.1280    -1.2760 h1         1 79P       0.012950
     49 H9           6.3720     0.4100    -2.8530 h1         1 79P       0.012950
     50 H10          4.0040     1.1850    -2.7070 h1         1 79P       0.022450
     51 H11          4.1240    -0.5640    -2.9730 h1         1 79P       0.022450
     52 H13          1.8380     0.8860    -1.8730 h1         1 79P       0.022700
     53 H14          1.8380    -0.8830    -1.8740 h1         1 79P       0.022700
     54 H15         -0.1880     0.5950     1.9980 h1         1 79P       0.066700
     55 H16         -0.5510    -1.4800     2.8130 hc         1 79P       0.015033
     56 H17         -1.9160    -1.7330     1.7150 hc         1 79P       0.015033
     57 H18         -0.2690    -2.0910     1.1770 hc         1 79P       0.015033
     58 H19         -2.4210     1.0210     3.0310 hn         1 79P       0.188500
     59 H20         -4.6680     0.9360     1.1160 h1         1 79P       0.068700
     60 H21         -2.4910     0.2660     4.8070 ha         1 79P       0.102000
     61 H22         -1.2620    -1.5400     5.9120 ha         1 79P       0.107000
     62 H23         -2.1880    -3.8210     5.9780 ha         1 79P       0.104000
     63 H24         -4.3570    -4.3180     4.9390 ha         1 79P       0.101000
     64 H25         -6.4910    -3.0440     3.4850 hn         1 79P       0.115700
     65 H26         -7.0170    -0.6810     2.6320 h4         1 79P       0.140000
     66 H27         -6.1900     3.1740     1.5100 hn         1 79P       0.169500
     67 H28         -4.3330     5.2060     0.3900 h1         1 79P       0.091700
     68 H29         -7.3650     5.0030     0.4140 hc         1 79P       0.028200
     69 H30         -6.4550     6.3280    -0.3250 hc         1 79P       0.028200
     70 H31         -7.3250     2.7710    -0.5440 ha         1 79P       0.102000
     71 H32         -7.0210     1.4240    -2.5860 ha         1 79P       0.101500
     72 H33         -5.7680     2.3490    -4.4980 ha         1 79P       0.102000
     73 H34         -4.8260     4.6240    -4.3700 ha         1 79P       0.101500
     74 H35         -5.1350     5.9730    -2.3300 ha         1 79P       0.102000
     75 H36         -6.3620     5.8040     2.5730 h1         1 79P      -0.006300
     76 H37         -4.7520     5.4620     3.8940 ho         1 79P       0.379000
     77 H38         -5.9990     7.6180     0.9060 hc         1 79P       0.040700
     78 H39         -3.7360     8.6490     0.7810 hc         1 79P       0.016700
     79 H40         -3.1040     7.3410     1.7910 hc         1 79P       0.016700
     80 H41         -3.7410     6.9850     0.1800 hc         1 79P       0.016700
     81 H42         -6.3860     8.1150     3.3310 h1         1 79P      -0.012800
     82 H43         -4.6340     8.1660     3.5660 h1         1 79P      -0.012800
     83 H44         -5.7720    10.2400     3.0870 ho         1 79P       0.388000
     84 O14         -2.5380     0.7320    -0.0650 o          1 79P      -0.660100
     85 O27         -3.0990     3.5310     1.4930 o          1 79P      -0.616100
     86 H4           3.4090    -1.3970     0.5180 h1         1 79P       0.022450
@<TRIPOS>BOND
     1     1    12 1   
     2     1    14 1   
     3     1    42 1   
     4     2    14 1   
     5     2    16 1   
     6     2    84 2   
     7     3    17 1   
     8     3    18 1   
     9     3    43 1   
    10     3    44 1   
    11     4    17 1   
    12     4    27 1   
    13     4    85 2   
    14     5     6 1   
    15     5    10 1   
    16     5    45 1   
    17     5    86 1   
    18     6     7 1   
    19     6    46 1   
    20     6    47 1   
    21     7     8 1   
    22     8     9 1   
    23     8    48 1   
    24     8    49 1   
    25     9    10 1   
    26     9    50 1   
    27     9    51 1   
    28    10    11 1   
    29    11    12 1   
    30    11    52 1   
    31    11    53 1   
    32    12    13 2   
    33    14    15 1   
    34    14    54 1   
    35    15    55 1   
    36    15    56 1   
    37    15    57 1   
    38    16    17 1   
    39    16    58 1   
    40    17    59 1   
    41    18    19 1   
    42    18    26 2   
    43    19    20 ar  
    44    19    24 ar  
    45    20    21 ar  
    46    20    60 1   
    47    21    22 ar  
    48    21    61 1   
    49    22    23 ar  
    50    22    62 1   
    51    23    24 ar  
    52    23    63 1   
    53    24    25 1   
    54    25    26 1   
    55    25    64 1   
    56    26    65 1   
    57    27    28 1   
    58    27    66 1   
    59    28    29 1   
    60    28    36 1   
    61    28    67 1   
    62    29    30 1   
    63    29    68 1   
    64    29    69 1   
    65    30    31 ar  
    66    30    35 ar  
    67    31    32 ar  
    68    31    70 1   
    69    32    33 ar  
    70    32    71 1   
    71    33    34 ar  
    72    33    72 1   
    73    34    35 ar  
    74    34    73 1   
    75    35    74 1   
    76    36    37 1   
    77    36    38 1   
    78    36    75 1   
    79    37    76 1   
    80    38    39 1   
    81    38    40 1   
    82    38    77 1   
    83    39    78 1   
    84    39    79 1   
    85    39    80 1   
    86    40    41 1   
    87    40    81 1   
    88    40    82 1   
    89    41    83 1   
@<TRIPOS>SUBSTRUCTURE
     1 79P         1 TEMP              0 ****  ****    0 ROOT
