@<TRIPOS>MOLECULE
molecule
   86    89     1     0     0
SMALL
bcc


@<TRIPOS>ATOM
      1 N1           0.0000     0.0000     0.0000 ns         1 79P      -0.573900
      2 C13         -2.0980     0.6040     1.0590 c          1 79P       0.666100
      3 C17         -5.0010     1.2920     3.2110 c3         1 79P      -0.010200
      4 C26         -4.1620     2.9530     1.5710 c          1 79P       0.644100
      5 C50          3.9640    -1.2560    -0.4020 c3         1 79P       0.120300
      6 C51          5.4610    -1.1890    -0.0880 c3         1 79P       0.141400
      7 O52          6.1850    -0.9250    -1.2930 os         1 79P      -0.430600
      8 C53          5.8030     0.2920    -1.9390 c3         1 79P       0.141400
      9 C54          4.3090     0.2410    -2.2720 c3         1 79P       0.120300
     10 N55          3.5450     0.0010    -1.0380 n3         1 79P      -0.703600
     11 C56          2.1000     0.0010    -1.3060 c3         1 79P       0.091800
     12 C2           1.3480     0.0000     0.0000 c          1 79P       0.660100
     13 O3           1.9540     0.0000     1.0500 o          1 79P      -0.601100
     14 C11         -0.7320     0.0060     1.2700 c3         1 79P       0.048700
     15 C12         -0.8780    -1.4290     1.7810 c3         1 79P      -0.104100
     16 N15         -2.8320     0.9980     2.1190 ns         1 79P      -0.550900
     17 C16         -4.1990     1.4880     1.9210 c3         1 79P       0.049700
     18 C66         -5.1140    -0.1800     3.5120 cc         1 79P      -0.163400
     19 C67         -4.1390    -0.9980     4.2360 ca         1 79P      -0.094800
     20 C63         -2.9040    -0.7350     4.8330 ca         1 79P      -0.089000
     21 C62         -2.2200    -1.7450     5.4490 ca         1 79P      -0.151000
     22 C61         -2.7420    -3.0300     5.4870 ca         1 79P      -0.107000
     23 C60         -3.9580    -3.3120     4.9040 ca         1 79P      -0.140000
     24 C68         -4.6730    -2.2990     4.2720 ca         1 79P      -0.037200
     25 N69         -5.8820    -2.2610     3.6150 na         1 79P      -0.179400
     26 C65         -6.1310    -0.9890     3.1740 cd         1 79P      -0.091100
     27 N28         -5.3110     3.6210     1.3440 ns         1 79P      -0.582900
     28 C29         -5.2710     5.0160     0.8970 c3         1 79P       0.111700
     29 C30         -6.4320     5.2770    -0.0640 c3         1 79P      -0.051100
     30 C41         -6.2460     4.4530    -1.3120 ca         1 79P      -0.081300
     31 C46         -6.7760     3.1780    -1.3840 ca         1 79P      -0.120500
     32 C45         -6.6050     2.4230    -2.5300 ca         1 79P      -0.121000
     33 C44         -5.9040     2.9420    -3.6020 ca         1 79P      -0.124000
     34 C43         -5.3740     4.2170    -3.5290 ca         1 79P      -0.121000
     35 C42         -5.5500     4.9740    -2.3870 ca         1 79P      -0.120500
     36 C31         -5.3930     5.9420     2.1080 c3         1 79P       0.133100
     37 O32         -4.3640     5.6330     3.0520 oh         1 79P      -0.579800
     38 C37         -5.2480     7.3970     1.6550 c3         1 79P      -0.087700
     39 C38         -3.8560     7.6080     1.0580 c3         1 79P      -0.083100
     40 C39         -5.4360     8.3260     2.8550 c3         1 79P       0.144400
     41 O40         -5.4160     9.6850     2.4130 oh         1 79P      -0.608800
     42 H1          -0.5000    -0.0380    -0.8660 hn         1 79P       0.334500
     43 H2          -5.9920     1.7120     3.0870 hc         1 79P       0.054700
     44 H3          -4.4970     1.7910     4.0290 hc         1 79P       0.054700
     45 H5           3.7740    -2.0820    -1.0760 h1         1 79P       0.046950
     46 H6           5.6450    -0.3950     0.6250 h1         1 79P       0.054450
     47 H7           5.7840    -2.1370     0.3260 h1         1 79P       0.054450
     48 H8           5.9960     1.1280    -1.2760 h1         1 79P       0.054450
     49 H9           6.3720     0.4100    -2.8530 h1         1 79P       0.054450
     50 H10          4.0040     1.1850    -2.7070 h1         1 79P       0.046950
     51 H11          4.1240    -0.5640    -2.9730 h1         1 79P       0.046950
     52 H13          1.8380     0.8860    -1.8730 h1         1 79P       0.053700
     53 H14          1.8380    -0.8830    -1.8740 h1         1 79P       0.053700
     54 H15         -0.1880     0.5950     1.9980 h1         1 79P       0.092700
     55 H16         -0.5510    -1.4800     2.8130 hc         1 79P       0.048700
     56 H17         -1.9160    -1.7330     1.7150 hc         1 79P       0.048700
     57 H18         -0.2690    -2.0910     1.1770 hc         1 79P       0.048700
     58 H19         -2.4210     1.0210     3.0310 hn         1 79P       0.326500
     59 H20         -4.6680     0.9360     1.1160 h1         1 79P       0.095700
     60 H21         -2.4910     0.2660     4.8070 ha         1 79P       0.124000
     61 H22         -1.2620    -1.5400     5.9120 ha         1 79P       0.133000
     62 H23         -2.1880    -3.8210     5.9780 ha         1 79P       0.133000
     63 H24         -4.3570    -4.3180     4.9390 ha         1 79P       0.128000
     64 H25         -6.4910    -3.0440     3.4850 hn         1 79P       0.298700
     65 H26         -7.0170    -0.6810     2.6320 h4         1 79P       0.164000
     66 H27         -6.1900     3.1740     1.5100 hn         1 79P       0.303500
     67 H28         -4.3330     5.2060     0.3900 h1         1 79P       0.110700
     68 H29         -7.3650     5.0030     0.4140 hc         1 79P       0.054700
     69 H30         -6.4550     6.3280    -0.3250 hc         1 79P       0.054700
     70 H31         -7.3250     2.7710    -0.5440 ha         1 79P       0.124500
     71 H32         -7.0210     1.4240    -2.5860 ha         1 79P       0.129000
     72 H33         -5.7680     2.3490    -4.4980 ha         1 79P       0.129000
     73 H34         -4.8260     4.6240    -4.3700 ha         1 79P       0.129000
     74 H35         -5.1350     5.9730    -2.3300 ha         1 79P       0.124500
     75 H36         -6.3620     5.8040     2.5730 h1         1 79P       0.022700
     76 H37         -4.7520     5.4620     3.8940 ho         1 79P       0.393000
     77 H38         -5.9990     7.6180     0.9060 hc         1 79P       0.060700
     78 H39         -3.7360     8.6490     0.7810 hc         1 79P       0.046367
     79 H40         -3.1040     7.3410     1.7910 hc         1 79P       0.046367
     80 H41         -3.7410     6.9850     0.1800 hc         1 79P       0.046367
     81 H42         -6.3860     8.1150     3.3310 h1         1 79P       0.022200
     82 H43         -4.6340     8.1660     3.5660 h1         1 79P       0.022200
     83 H44         -5.7720    10.2400     3.0870 ho         1 79P       0.401000
     84 O14         -2.5380     0.7320    -0.0650 o          1 79P      -0.615100
     85 O27         -3.0990     3.5310     1.4930 o          1 79P      -0.570100
     86 H4           3.4090    -1.3970     0.5180 h1         1 79P       0.046950
@<TRIPOS>BOND
     1    38    36 1   
     2    38    39 1   
     3    38    40 1   
     4    36    37 1   
     5    36    28 1   
     6    40    41 1   
     7    29    28 1   
     8    29    30 1   
     9    35    30 ar  
    10    35    34 ar  
    11    28    27 1   
    12    30    31 ar  
    13    34    33 ar  
    14    31    32 ar  
    15    33    32 ar  
    16    27     4 1   
    17     4    85 2   
    18     4    17 1   
    19     3    17 1   
    20     3    18 1   
    21    17    16 1   
    22    20    21 ar  
    23    20    19 ar  
    24    21    22 ar  
    25    16     2 1   
    26    18    19 1   
    27    18    26 2   
    28    19    24 ar  
    29    84     2 2   
    30     2    14 1   
    31    22    23 ar  
    32    26    25 1   
    33    24    23 ar  
    34    24    25 1   
    35    14     1 1   
    36    14    15 1   
    37    10    11 1   
    38    10     9 1   
    39    10     5 1   
    40     1    12 1   
    41    13    12 2   
    42    12    11 1   
    43     8     9 1   
    44     8     7 1   
    45     6     5 1   
    46     6     7 1   
    47     1    42 1   
    48     3    43 1   
    49     3    44 1   
    50     5    86 1   
    51     5    45 1   
    52     6    46 1   
    53     6    47 1   
    54     8    48 1   
    55     8    49 1   
    56     9    50 1   
    57     9    51 1   
    58    11    52 1   
    59    11    53 1   
    60    14    54 1   
    61    15    55 1   
    62    15    56 1   
    63    15    57 1   
    64    16    58 1   
    65    17    59 1   
    66    20    60 1   
    67    21    61 1   
    68    22    62 1   
    69    23    63 1   
    70    25    64 1   
    71    26    65 1   
    72    27    66 1   
    73    28    67 1   
    74    29    68 1   
    75    29    69 1   
    76    31    70 1   
    77    32    71 1   
    78    33    72 1   
    79    34    73 1   
    80    35    74 1   
    81    36    75 1   
    82    37    76 1   
    83    38    77 1   
    84    39    78 1   
    85    39    79 1   
    86    39    80 1   
    87    40    81 1   
    88    40    82 1   
    89    41    83 1   
@<TRIPOS>SUBSTRUCTURE
     1 79P         1 TEMP              0 ****  ****    0 ROOT
