@<TRIPOS>MOLECULE
79Q
   77    82     1     0     0
SMALL
bcc


@<TRIPOS>ATOM
      1 CAY          0.0000     0.0000     0.0000 c3         1 79Q       0.106300
      2 CAT          1.5310     0.0000     0.0000 c3         1 79Q       0.215900
      3 OBD          2.0030     0.0000     1.3500 os         1 79Q      -0.411600
      4 CAU          1.5500    -1.1190     2.1180 c3         1 79Q       0.215900
      5 CAZ          0.0200    -1.1300     2.1390 c3         1 79Q       0.106300
      6 NBR         -0.4850    -1.1610     0.7590 n3         1 79Q      -0.529600
      7 CAX         -1.9520    -1.2300     0.7360 c3         1 79Q       0.141800
      8 CAS         -2.4080    -2.5710     1.3140 c3         1 79Q       0.041000
      9 NBA         -3.8710    -2.6400     1.2900 ns         1 79Q      -0.202900
     10 CBE         -4.5020    -3.7380     1.7540 c          1 79Q       0.598700
     11 OAA         -3.8570    -4.6700     2.1920 o          1 79Q      -0.643100
     12 CBL         -5.9790    -3.8070     1.7300 ca         1 79Q      -0.165600
     13 CAR         -6.6350    -4.9420     2.2100 ca         1 79Q       0.015000
     14 CBQ         -8.0270    -4.9780     2.1750 ca         1 79Q      -0.163600
     15 CBG         -8.7750    -6.1580     2.6490 c          1 79Q       0.656300
     16 OAC         -8.6170    -7.2260     2.0890 o          1 79Q      -0.549100
     17 CAM         -6.7240    -2.7340     1.2340 ca         1 79Q      -0.073000
     18 CAN         -8.1040    -2.7900     1.2120 ca         1 79Q      -0.111000
     19 CBM         -8.7560    -3.9180     1.6850 ca         1 79Q      -0.040300
     20 CAV        -10.2530    -3.9760     1.6790 c3         1 79Q       0.014900
     21 CAW        -10.8600    -3.8610     3.0500 c3         1 79Q       0.034900
     22 CBN        -10.6080    -5.0340     3.9620 ca         1 79Q      -0.001300
     23 CAP        -11.3980    -5.0430     5.0980 ca         1 79Q      -0.185000
     24 CBP         -9.7060    -6.0720     3.7820 ca         1 79Q      -0.197600
     25 CAO         -9.6400    -7.1230     4.7190 ca         1 79Q      -0.014000
     26 CAK        -10.4340    -7.1250     5.8250 ca         1 79Q      -0.173000
     27 CBH        -11.3210    -6.0690     6.0270 ca         1 79Q       0.047600
     28 NBC        -12.1260    -6.0440     7.1590 nu         1 79Q      -0.219000
     29 CBI        -12.6150    -7.2390     7.6960 ca         1 79Q       0.030600
     30 CAQ        -12.9530    -7.3080     9.0400 ca         1 79Q      -0.144000
     31 CAJ        -12.7670    -8.3550     6.8840 ca         1 79Q      -0.154000
     32 CAL        -13.2500    -9.5360     7.4130 ca         1 79Q      -0.077000
     33 CBJ        -13.5820    -9.6120     8.7530 ca         1 79Q       0.032900
     34 FAD        -14.0540   -10.7690     9.2680 f          1 79Q      -0.130900
     35 CBO        -13.4360    -8.4950     9.5710 ca         1 79Q      -0.078400
     36 NBB        -13.7790    -8.5700    10.9260 ns         1 79Q      -0.028100
     37 CBF        -14.3090    -7.4980    11.5470 c          1 79Q       0.592700
     38 OAB        -14.4190    -6.4430    10.9510 o          1 79Q      -0.645100
     39 CBK        -14.7570    -7.6030    12.9520 ca         1 79Q      -0.165600
     40 CAH        -15.3060    -6.4950    13.5980 ca         1 79Q      -0.056000
     41 CAF        -15.7220    -6.6000    14.9090 ca         1 79Q      -0.110500
     42 CAE        -15.5960    -7.8020    15.5830 ca         1 79Q      -0.073000
     43 CAG        -15.0510    -8.9040    14.9490 ca         1 79Q      -0.110500
     44 CAI        -14.6370    -8.8140    13.6370 ca         1 79Q      -0.056000
     45 H1          -0.3610     0.9100     0.4640 h1         1 79Q       0.019200
     46 H2          -0.3610    -0.0600    -1.0200 h1         1 79Q       0.019200
     47 H3           1.8920    -0.8860    -0.5080 h1         1 79Q       0.013950
     48 H4           1.8920     0.8860    -0.5080 h1         1 79Q       0.013950
     49 H5           1.9110    -2.0350     1.6670 h1         1 79Q       0.013950
     50 H6           1.9240    -1.0350     3.1310 h1         1 79Q       0.013950
     51 H7          -0.3400    -0.2360     2.6340 h1         1 79Q       0.019200
     52 H8          -0.3270    -2.0080     2.6700 h1         1 79Q       0.019200
     53 H10         -2.3010    -1.1390    -0.2860 h1         1 79Q       0.010200
     54 H11         -2.3610    -0.4230     1.3310 h1         1 79Q       0.010200
     55 H12         -1.9990    -3.3790     0.7190 h1         1 79Q       0.036200
     56 H13         -2.0590    -2.6620     2.3350 h1         1 79Q       0.036200
     57 H14         -4.4020    -1.8780     0.9180 hn         1 79Q       0.177500
     58 H15         -6.0750    -5.8460     2.4150 ha         1 79Q       0.138000
     59 H16         -6.2160    -1.8530     0.8630 ha         1 79Q       0.099000
     60 H17         -8.6750    -1.9540     0.8250 ha         1 79Q       0.111000
     61 H18        -10.6180    -3.1500     1.0810 hc         1 79Q       0.029200
     62 H19        -10.5500    -4.9300     1.2600 hc         1 79Q       0.029200
     63 H20        -11.9320    -3.7640     2.9280 hc         1 79Q       0.028200
     64 H21        -10.4400    -2.9810     3.5230 hc         1 79Q       0.028200
     65 H22        -12.0910    -4.2280     5.2660 ha         1 79Q       0.114000
     66 H23         -8.9480    -7.9410     4.5560 ha         1 79Q       0.117000
     67 H24        -10.3670    -7.9310     6.5460 ha         1 79Q       0.129000
     68 H25        -12.3450    -5.1710     7.5980 hn         1 79Q       0.292800
     69 H26        -12.8390    -6.4370     9.6740 ha         1 79Q       0.156000
     70 H27        -12.5070    -8.2990     5.8330 ha         1 79Q       0.132000
     71 H28        -13.3670   -10.4060     6.7770 ha         1 79Q       0.119000
     72 H29        -13.5930    -9.4070    11.4430 hn         1 79Q       0.181500
     73 H30        -15.4060    -5.5540    13.0710 ha         1 79Q       0.114000
     74 H31        -16.1490    -5.7410    15.4110 ha         1 79Q       0.107500
     75 H32        -15.9220    -7.8790    16.6140 ha         1 79Q       0.103000
     76 H33        -14.9570    -9.8430    15.4810 ha         1 79Q       0.107500
     77 H34        -14.2110    -9.6780    13.1410 ha         1 79Q       0.114000
@<TRIPOS>BOND
     1     1     2 1   
     2     1     6 1   
     3     1    45 1   
     4     1    46 1   
     5     2     3 1   
     6     2    47 1   
     7     2    48 1   
     8     3     4 1   
     9     4     5 1   
    10     4    49 1   
    11     4    50 1   
    12     5     6 1   
    13     5    51 1   
    14     5    52 1   
    15     6     7 1   
    16     7     8 1   
    17     7    53 1   
    18     7    54 1   
    19     8     9 1   
    20     8    55 1   
    21     8    56 1   
    22     9    10 1   
    23     9    57 1   
    24    10    11 2   
    25    10    12 1   
    26    12    13 ar  
    27    12    17 ar  
    28    13    14 ar  
    29    13    58 1   
    30    14    15 1   
    31    14    19 ar  
    32    15    16 2   
    33    15    24 1   
    34    17    18 ar  
    35    17    59 1   
    36    18    19 ar  
    37    18    60 1   
    38    19    20 1   
    39    20    21 1   
    40    20    61 1   
    41    20    62 1   
    42    21    22 1   
    43    21    63 1   
    44    21    64 1   
    45    22    23 ar  
    46    22    24 ar  
    47    23    27 ar  
    48    23    65 1   
    49    24    25 ar  
    50    25    26 ar  
    51    25    66 1   
    52    26    27 ar  
    53    26    67 1   
    54    27    28 1   
    55    28    29 1   
    56    28    68 1   
    57    29    30 ar  
    58    29    31 ar  
    59    30    35 ar  
    60    30    69 1   
    61    31    32 ar  
    62    31    70 1   
    63    32    33 ar  
    64    32    71 1   
    65    33    34 1   
    66    33    35 ar  
    67    35    36 1   
    68    36    37 1   
    69    36    72 1   
    70    37    38 2   
    71    37    39 1   
    72    39    40 ar  
    73    39    44 ar  
    74    40    41 ar  
    75    40    73 1   
    76    41    42 ar  
    77    41    74 1   
    78    42    43 ar  
    79    42    75 1   
    80    43    44 ar  
    81    43    76 1   
    82    44    77 1   
@<TRIPOS>SUBSTRUCTURE
     1 79Q         1 TEMP              0 ****  ****    0 ROOT
