@<TRIPOS>MOLECULE
molecule
   77    82     1     0     0
SMALL
bcc


@<TRIPOS>ATOM
      1 CAY          0.0000     0.0000     0.0000 c3         1 79Q       0.121800
      2 CAT          1.5310     0.0000     0.0000 c3         1 79Q       0.139900
      3 OBD          2.0030     0.0000     1.3500 os         1 79Q      -0.424600
      4 CAU          1.5500    -1.1190     2.1180 c3         1 79Q       0.139900
      5 CAZ          0.0200    -1.1300     2.1390 c3         1 79Q       0.121800
      6 NBR         -0.4850    -1.1610     0.7590 n3         1 79Q      -0.724600
      7 CAX         -1.9520    -1.2300     0.7360 c3         1 79Q       0.144800
      8 CAS         -2.4080    -2.5710     1.3140 c3         1 79Q       0.112000
      9 NBA         -3.8710    -2.6400     1.2900 ns         1 79Q      -0.587900
     10 CBE         -4.5020    -3.7380     1.7540 c          1 79Q       0.675700
     11 OAA         -3.8570    -4.6700     2.1920 o          1 79Q      -0.602100
     12 CBL         -5.9790    -3.8070     1.7300 ca         1 79Q      -0.152600
     13 CAR         -6.6350    -4.9420     2.2100 ca         1 79Q      -0.024000
     14 CBQ         -8.0270    -4.9780     2.1750 ca         1 79Q      -0.155600
     15 CBG         -8.7750    -6.1580     2.6490 c          1 79Q       0.595300
     16 OAC         -8.6170    -7.2260     2.0890 o          1 79Q      -0.513100
     17 CAM         -6.7240    -2.7340     1.2340 ca         1 79Q      -0.094000
     18 CAN         -8.1040    -2.7900     1.2120 ca         1 79Q      -0.138000
     19 CBM         -8.7560    -3.9180     1.6850 ca         1 79Q      -0.034300
     20 CAV        -10.2530    -3.9760     1.6790 c3         1 79Q      -0.046100
     21 CAW        -10.8600    -3.8610     3.0500 c3         1 79Q      -0.032100
     22 CBN        -10.6080    -5.0340     3.9620 ca         1 79Q      -0.003300
     23 CAP        -11.3980    -5.0430     5.0980 ca         1 79Q      -0.203000
     24 CBP         -9.7060    -6.0720     3.7820 ca         1 79Q      -0.190600
     25 CAO         -9.6400    -7.1230     4.7190 ca         1 79Q      -0.051000
     26 CAK        -10.4340    -7.1250     5.8250 ca         1 79Q      -0.187000
     27 CBH        -11.3210    -6.0690     6.0270 ca         1 79Q       0.198600
     28 NBC        -12.1260    -6.0440     7.1590 nu         1 79Q      -0.678000
     29 CBI        -12.6150    -7.2390     7.6960 ca         1 79Q       0.176600
     30 CAQ        -12.9530    -7.3080     9.0400 ca         1 79Q      -0.164000
     31 CAJ        -12.7670    -8.3550     6.8840 ca         1 79Q      -0.174000
     32 CAL        -13.2500    -9.5360     7.4130 ca         1 79Q      -0.117000
     33 CBJ        -13.5820    -9.6120     8.7530 ca         1 79Q       0.061900
     34 FAD        -14.0540   -10.7690     9.2680 f          1 79Q      -0.146900
     35 CBO        -13.4360    -8.4950     9.5710 ca         1 79Q       0.055600
     36 NBB        -13.7790    -8.5700    10.9260 ns         1 79Q      -0.469100
     37 CBF        -14.3090    -7.4980    11.5470 c          1 79Q       0.680700
     38 OAB        -14.4190    -6.4430    10.9510 o          1 79Q      -0.601100
     39 CBK        -14.7570    -7.6030    12.9520 ca         1 79Q      -0.151600
     40 CAH        -15.3060    -6.4950    13.5980 ca         1 79Q      -0.083000
     41 CAF        -15.7220    -6.6000    14.9090 ca         1 79Q      -0.137500
     42 CAE        -15.5960    -7.8020    15.5830 ca         1 79Q      -0.101000
     43 CAG        -15.0510    -8.9040    14.9490 ca         1 79Q      -0.137500
     44 CAI        -14.6370    -8.8140    13.6370 ca         1 79Q      -0.083000
     45 H1          -0.3610     0.9100     0.4640 h1         1 79Q       0.044700
     46 H2          -0.3610    -0.0600    -1.0200 h1         1 79Q       0.044700
     47 H3           1.8920    -0.8860    -0.5080 h1         1 79Q       0.055200
     48 H4           1.8920     0.8860    -0.5080 h1         1 79Q       0.055200
     49 H5           1.9110    -2.0350     1.6670 h1         1 79Q       0.055200
     50 H6           1.9240    -1.0350     3.1310 h1         1 79Q       0.055200
     51 H7          -0.3400    -0.2360     2.6340 h1         1 79Q       0.044700
     52 H8          -0.3270    -2.0080     2.6700 h1         1 79Q       0.044700
     53 H10         -2.3010    -1.1390    -0.2860 h1         1 79Q       0.036700
     54 H11         -2.3610    -0.4230     1.3310 h1         1 79Q       0.036700
     55 H12         -1.9990    -3.3790     0.7190 h1         1 79Q       0.063200
     56 H13         -2.0590    -2.6620     2.3350 h1         1 79Q       0.063200
     57 H14         -4.4020    -1.8780     0.9180 hn         1 79Q       0.311500
     58 H15         -6.0750    -5.8460     2.4150 ha         1 79Q       0.171000
     59 H16         -6.2160    -1.8530     0.8630 ha         1 79Q       0.124000
     60 H17         -8.6750    -1.9540     0.8250 ha         1 79Q       0.136000
     61 H18        -10.6180    -3.1500     1.0810 hc         1 79Q       0.060700
     62 H19        -10.5500    -4.9300     1.2600 hc         1 79Q       0.060700
     63 H20        -11.9320    -3.7640     2.9280 hc         1 79Q       0.061700
     64 H21        -10.4400    -2.9810     3.5230 hc         1 79Q       0.061700
     65 H22        -12.0910    -4.2280     5.2660 ha         1 79Q       0.135000
     66 H23         -8.9480    -7.9410     4.5560 ha         1 79Q       0.150000
     67 H24        -10.3670    -7.9310     6.5460 ha         1 79Q       0.151000
     68 H25        -12.3450    -5.1710     7.5980 hn         1 79Q       0.456800
     69 H26        -12.8390    -6.4370     9.6740 ha         1 79Q       0.174000
     70 H27        -12.5070    -8.2990     5.8330 ha         1 79Q       0.153000
     71 H28        -13.3670   -10.4060     6.7770 ha         1 79Q       0.150000
     72 H29        -13.5930    -9.4070    11.4430 hn         1 79Q       0.335500
     73 H30        -15.4060    -5.5540    13.0710 ha         1 79Q       0.142000
     74 H31        -16.1490    -5.7410    15.4110 ha         1 79Q       0.137000
     75 H32        -15.9220    -7.8790    16.6140 ha         1 79Q       0.134000
     76 H33        -14.9570    -9.8430    15.4810 ha         1 79Q       0.137000
     77 H34        -14.2110    -9.6780    13.1410 ha         1 79Q       0.142000
@<TRIPOS>BOND
     1     2     3 1
     2     2     1 1
     3     3     4 1
     4     4     5 1
     5     1     6 1
     6     5     6 1
     7     6     7 1
     8    11    10 2
     9    10     9 1
    10    10    12 1
    11     9     8 1
    12     7     8 1
    13    16    15 2
    14    12    13 ar
    15    12    17 ar
    16    13    14 ar
    17    17    18 ar
    18    15    14 1
    19    15    24 1
    20    14    19 ar
    21    18    19 ar
    22    19    20 1
    23    25    24 ar
    24    25    26 ar
    25    24    22 ar
    26    20    21 1
    27    26    27 ar
    28    22    21 1
    29    22    23 ar
    30    27    23 ar
    31    27    28 1
    32    31    32 ar
    33    31    29 ar
    34    28    29 1
    35    32    33 ar
    36    29    30 ar
    37    33    34 1
    38    33    35 ar
    39    30    35 ar
    40    35    36 1
    41    38    37 2
    42    37    36 1
    43    37    39 1
    44    44    39 ar
    45    44    43 ar
    46    39    40 ar
    47    43    42 ar
    48    40    41 ar
    49    42    41 ar
    50     1    45 1
    51     1    46 1
    52     2    47 1
    53     2    48 1
    54     4    49 1
    55     4    50 1
    56     5    51 1
    57     5    52 1
    58     7    53 1
    59     7    54 1
    60     8    55 1
    61     8    56 1
    62     9    57 1
    63    13    58 1
    64    17    59 1
    65    18    60 1
    66    20    61 1
    67    20    62 1
    68    21    63 1
    69    21    64 1
    70    23    65 1
    71    25    66 1
    72    26    67 1
    73    28    68 1
    74    30    69 1
    75    31    70 1
    76    32    71 1
    77    36    72 1
    78    40    73 1
    79    41    74 1
    80    42    75 1
    81    43    76 1
    82    44    77 1
@<TRIPOS>SUBSTRUCTURE
     1 79Q         1 TEMP              0 ****  ****    0 ROOT
