@<TRIPOS>MOLECULE
molecule
   51    54     1     0     0
SMALL
bcc


@<TRIPOS>ATOM
      1 FAA          0.0000     0.0000     0.0000 f          1 79U      -0.216967
      2 CAB          1.3980     0.0000     0.0000 c3         1 79U       0.679200
      3 FAC          1.8650     0.0000     1.3190 f          1 79U      -0.216967
      4 FAD          1.8660    -1.1430    -0.6600 f          1 79U      -0.216967
      5 CAE          1.9020     1.2300    -0.7100 ca         1 79U      -0.172300
      6 CAF          2.6960     2.1400    -0.0400 ca         1 79U      -0.077000
      7 CAG          3.1580     3.2690    -0.6910 ca         1 79U      -0.126000
      8 CAH          2.8250     3.4920    -2.0140 ca         1 79U      -0.090000
      9 CAI          2.0310     2.5850    -2.6910 ca         1 79U       0.020400
     10 Cl1          1.6140     2.8640    -4.3520 cl         1 79U      -0.072400
     11 CAK          1.5720     1.4460    -2.0410 ca         1 79U       0.162100
     12 OAL          0.7910     0.5540    -2.7030 os         1 79U      -0.296700
     13 CAM          1.4040    -0.4620    -3.3640 cc         1 79U       0.558200
     14 NAN          2.6910    -0.6720    -3.4320 nd         1 79U      -0.547100
     15 CAO          0.7410    -1.5230    -4.1270 ca         1 79U      -0.251900
     16 CAP         -0.5910    -1.8230    -4.4080 ca         1 79U      -0.029000
     17 CAQ         -0.8920    -2.9350    -5.1850 ca         1 79U      -0.201600
     18 CAR         -2.2990    -3.2630    -5.4900 c          1 79U       0.684700
     19 OAS         -2.6050    -3.6630    -6.5960 o          1 79U      -0.613100
     20 NAT         -3.2450    -3.1180    -4.5400 n          1 79U      -0.498800
     21 CAV         -2.8970    -2.5340    -3.2420 c3         1 79U       0.097800
     22 CAU         -4.6210    -3.5440    -4.8060 c3         1 79U       0.097800
     23 CAW          0.1390    -3.7450    -5.6840 ca         1 79U      -0.043000
     24 CAX          1.4420    -3.4560    -5.4120 ca         1 79U      -0.157000
     25 CAY          1.7670    -2.3450    -4.6340 ca         1 79U       0.021800
     26 NAZ          2.9530    -1.8120    -4.1990 na         1 79U       0.192800
     27 CBA          4.2190    -2.3250    -4.4760 ca         1 79U      -0.016200
     28 CBB          5.2940    -1.4600    -4.6580 ca         1 79U      -0.159500
     29 CBC          6.5460    -1.9640    -4.9310 ca         1 79U      -0.090500
     30 CBD          6.7360    -3.3450    -5.0270 ca         1 79U      -0.094600
     31 CBE          8.0760    -3.8880    -5.3190 c          1 79U       0.879200
     32 OBG          9.0160    -3.1340    -5.4770 o          1 79U      -0.831300
     33 OBF          8.2570    -5.2200    -5.4120 o          1 79U      -0.831300
     34 CBH          5.6540    -4.2110    -4.8440 ca         1 79U      -0.090500
     35 CBI          4.4060    -3.7010    -4.5650 ca         1 79U      -0.159500
     36 H1           2.9580     1.9680     0.9970 ha         1 79U       0.155000
     37 H2           3.7800     3.9810    -0.1630 ha         1 79U       0.143000
     38 H3           3.1880     4.3770    -2.5220 ha         1 79U       0.150000
     39 H4          -1.3710    -1.1160    -4.1500 ha         1 79U       0.141000
     40 H5          -2.9940    -1.4570    -3.2930 h1         1 79U       0.040533
     41 H6          -3.5640    -2.9220    -2.4810 h1         1 79U       0.040533
     42 H7          -1.8750    -2.7930    -2.9920 h1         1 79U       0.040533
     43 H8          -5.2340    -3.3460    -3.9360 h1         1 79U       0.040533
     44 H9          -5.0110    -2.9970    -5.6550 h1         1 79U       0.040533
     45 H10         -4.6340    -4.6050    -5.0230 h1         1 79U       0.040533
     46 H11         -0.1040    -4.6100    -6.2890 ha         1 79U       0.149000
     47 H12          2.2290    -4.0900    -5.8030 ha         1 79U       0.158000
     48 H13          5.1460    -0.3890    -4.5830 ha         1 79U       0.124500
     49 H14          7.3830    -1.2900    -5.0730 ha         1 79U       0.159500
     50 H16          5.7980    -5.2820    -4.9160 ha         1 79U       0.159500
     51 H17          3.5670    -4.3720    -4.4230 ha         1 79U       0.124500
@<TRIPOS>BOND
     1    21    20 1
     2    19    18 2
     3    20    18 1
     4    20    22 1
     5    18    17 1
     6    17    16 ar
     7    17    23 ar
     8    16    15 ar
     9    23    24 ar
    10     4     2 1
    11    15    13 1
    12    15    25 ar
    13    12    13 1
    14    12    11 1
    15    24    25 ar
    16    13    14 2
    17    10     9 1
    18    11     9 ar
    19    11     5 ar
    20    25    26 1
    21     2     5 1
    22     2     3 1
    23     2     1 1
    24     9     8 ar
    25     5     6 ar
    26    14    26 1
    27     8     7 ar
    28    26    27 1
    29     6     7 ar
    30    27    28 ar
    31    27    35 ar
    32    28    29 ar
    33    35    34 ar
    34    29    30 ar
    35    34    30 ar
    36    30    31 1
    37    31    32 1
    38    31    33 1
    39     6    36 1
    40     7    37 1
    41     8    38 1
    42    16    39 1
    43    21    40 1
    44    21    41 1
    45    21    42 1
    46    22    43 1
    47    22    44 1
    48    22    45 1
    49    23    46 1
    50    24    47 1
    51    28    48 1
    52    29    49 1
    53    34    50 1
    54    35    51 1
@<TRIPOS>SUBSTRUCTURE
     1 79U         1 TEMP              0 ****  ****    0 ROOT
