@<TRIPOS>MOLECULE
79U
   51    54     1     0     0
SMALL
bcc


@<TRIPOS>ATOM
      1 FAA          0.0000     0.0000     0.0000 f          1 79U      -0.206633
      2 CAB          1.3980     0.0000     0.0000 c3         1 79U       0.650200
      3 FAC          1.8650     0.0000     1.3190 f          1 79U      -0.206633
      4 FAD          1.8660    -1.1430    -0.6600 f          1 79U      -0.206633
      5 CAE          1.9020     1.2300    -0.7100 ca         1 79U      -0.209300
      6 CAF          2.6960     2.1400    -0.0400 ca         1 79U      -0.037000
      7 CAG          3.1580     3.2690    -0.6910 ca         1 79U      -0.104000
      8 CAH          2.8250     3.4920    -2.0140 ca         1 79U      -0.057000
      9 CAI          2.0310     2.5850    -2.6910 ca         1 79U      -0.059600
     10 Cl1          1.6140     2.8640    -4.3520 cl         1 79U       0.012600
     11 CAK          1.5720     1.4460    -2.0410 ca         1 79U       0.187100
     12 OAL          0.7910     0.5540    -2.7030 os         1 79U      -0.284700
     13 CAM          1.4040    -0.4620    -3.3640 cc         1 79U       0.579200
     14 NAN          2.6910    -0.6720    -3.4320 nd         1 79U      -0.697100
     15 CAO          0.7410    -1.5230    -4.1270 ca         1 79U      -0.266900
     16 CAP         -0.5910    -1.8230    -4.4080 ca         1 79U      -0.005000
     17 CAQ         -0.8920    -2.9350    -5.1850 ca         1 79U      -0.210600
     18 CAR         -2.2990    -3.2630    -5.4900 c          1 79U       0.621700
     19 OAS         -2.6050    -3.6630    -6.5960 o          1 79U      -0.655100
     20 NAT         -3.2450    -3.1180    -4.5400 n          1 79U      -0.166800
     21 CAV         -2.8970    -2.5340    -3.2420 c3         1 79U       0.078300
     22 CAU         -4.6210    -3.5440    -4.8060 c3         1 79U       0.078300
     23 CAW          0.1390    -3.7450    -5.6840 ca         1 79U      -0.014000
     24 CAX          1.4420    -3.4560    -5.4120 ca         1 79U      -0.125000
     25 CAY          1.7670    -2.3450    -4.6340 ca         1 79U      -0.160200
     26 NAZ          2.9530    -1.8120    -4.1990 na         1 79U       0.680800
     27 CBA          4.2190    -2.3250    -4.4760 ca         1 79U      -0.208200
     28 CBB          5.2940    -1.4600    -4.6580 ca         1 79U      -0.129500
     29 CBC          6.5460    -1.9640    -4.9310 ca         1 79U      -0.065000
     30 CBD          6.7360    -3.3450    -5.0270 ca         1 79U      -0.082600
     31 CBE          8.0760    -3.8880    -5.3190 c          1 79U       0.968200
     32 OBG          9.0160    -3.1340    -5.4770 o          1 79U      -0.877300
     33 OBF          8.2570    -5.2200    -5.4120 o          1 79U      -0.877300
     34 CBH          5.6540    -4.2110    -4.8440 ca         1 79U      -0.065000
     35 CBI          4.4060    -3.7010    -4.5650 ca         1 79U      -0.129500
     36 H1           2.9580     1.9680     0.9970 ha         1 79U       0.121000
     37 H2           3.7800     3.9810    -0.1630 ha         1 79U       0.110000
     38 H3           3.1880     4.3770    -2.5220 ha         1 79U       0.115000
     39 H4          -1.3710    -1.1160    -4.1500 ha         1 79U       0.116000
     40 H5          -2.9940    -1.4570    -3.2930 h1         1 79U       0.011700
     41 H6          -3.5640    -2.9220    -2.4810 h1         1 79U       0.011700
     42 H7          -1.8750    -2.7930    -2.9920 h1         1 79U       0.011700
     43 H8          -5.2340    -3.3460    -3.9360 h1         1 79U       0.011700
     44 H9          -5.0110    -2.9970    -5.6550 h1         1 79U       0.011700
     45 H10         -4.6340    -4.6050    -5.0230 h1         1 79U       0.011700
     46 H11         -0.1040    -4.6100    -6.2890 ha         1 79U       0.115000
     47 H12          2.2290    -4.0900    -5.8030 ha         1 79U       0.132000
     48 H13          5.1460    -0.3890    -4.5830 ha         1 79U       0.104500
     49 H14          7.3830    -1.2900    -5.0730 ha         1 79U       0.131000
     50 H16          5.7980    -5.2820    -4.9160 ha         1 79U       0.131000
     51 H17          3.5670    -4.3720    -4.4230 ha         1 79U       0.104500
@<TRIPOS>BOND
     1     1     2 1   
     2     2     3 1   
     3     2     4 1   
     4     2     5 1   
     5     5     6 ar  
     6     5    11 ar  
     7     6     7 ar  
     8     6    36 1   
     9     7     8 ar  
    10     7    37 1   
    11     8     9 ar  
    12     8    38 1   
    13     9    10 1   
    14     9    11 ar  
    15    11    12 1   
    16    12    13 1   
    17    13    14 2   
    18    13    15 1   
    19    14    26 1   
    20    15    16 ar  
    21    15    25 ar  
    22    16    17 ar  
    23    16    39 1   
    24    17    18 1   
    25    17    23 ar  
    26    18    19 2   
    27    18    20 1   
    28    20    21 1   
    29    20    22 1   
    30    21    40 1   
    31    21    41 1   
    32    21    42 1   
    33    22    43 1   
    34    22    44 1   
    35    22    45 1   
    36    23    24 ar  
    37    23    46 1   
    38    24    25 ar  
    39    24    47 1   
    40    25    26 1   
    41    26    27 1   
    42    27    28 ar  
    43    27    35 ar  
    44    28    29 ar  
    45    28    48 1   
    46    29    30 ar  
    47    29    49 1   
    48    30    31 1   
    49    30    34 ar  
    50    31    32 1   
    51    31    33 1   
    52    34    35 ar  
    53    34    50 1   
    54    35    51 1   
@<TRIPOS>SUBSTRUCTURE
     1 79U         1 TEMP              0 ****  ****    0 ROOT
