@<TRIPOS>MOLECULE
79V
   36    38     1     0     0
SMALL
bcc


@<TRIPOS>ATOM
      1 C19          0.0000     0.0000     0.0000 c3         1 79V       0.225400
      2 C17          4.1360     1.2660    -0.0920 c1         1 79V       0.173700
      3 C16          3.3920     0.0000     0.0000 cy         1 79V       0.211600
      4 C14          1.4240     0.5590    -0.0200 cy         1 79V       0.095500
      5 C10          1.9220    -1.3740     1.5720 ca         1 79V      -0.073300
      6 C11          1.2860    -1.5240     2.7920 ca         1 79V      -0.095500
      7 C12          0.9220    -2.7790     3.2330 ca         1 79V      -0.084000
      8 C13          2.3170     0.0000     1.0960 cy         1 79V      -0.007400
      9 C01          0.7830    -6.9310     4.6320 ca         1 79V      -0.112000
     10 C02          0.0800    -7.7760     3.7940 ca         1 79V      -0.074000
     11 C03         -0.2630    -7.3660     2.5170 ca         1 79V      -0.132000
     12 C04          0.0960    -6.1070     2.0750 ca         1 79V       0.114900
     13 C05          0.8060    -5.2510     2.9170 cp         1 79V      -0.063000
     14 C06          1.1480    -5.6710     4.2010 ca         1 79V      -0.068000
     15 C07          1.1960    -3.8980     2.4480 cp         1 79V      -0.034000
     16 C08          1.8360    -3.7410     1.2210 ca         1 79V      -0.084000
     17 C09          2.2000    -2.4810     0.7910 ca         1 79V      -0.095500
     18 N15          2.3060    -0.1160    -0.9910 n6         1 79V      -0.559200
     19 O20         -0.7720     0.6250    -1.0280 oh         1 79V      -0.595800
     20 F21         -0.2390    -5.7070     0.8280 f          1 79V      -0.126900
     21 H1           0.0300    -1.0690    -0.1700 h1         1 79V       0.003700
     22 H2          -0.4530     0.2000     0.9640 h1         1 79V       0.003700
     23 H3           4.0210    -0.8810     0.0340 h1         1 79V       0.068700
     24 H4           1.4750     1.6390    -0.0930 h1         1 79V       0.048700
     25 H5           1.0730    -0.6540     3.4020 ha         1 79V       0.118500
     26 H6           0.4240    -2.8950     4.1880 ha         1 79V       0.113000
     27 H7           2.5130     0.7180     1.8830 hc         1 79V       0.049700
     28 H8           1.0480    -7.2580     5.6300 ha         1 79V       0.108000
     29 H9          -0.2030    -8.7640     4.1370 ha         1 79V       0.107000
     30 H10         -0.8140    -8.0330     1.8650 ha         1 79V       0.120000
     31 H11          1.6980    -5.0100     4.8600 ha         1 79V       0.113000
     32 H12          2.0520    -4.6070     0.6060 ha         1 79V       0.113000
     33 H13          2.6980    -2.3590    -0.1640 ha         1 79V       0.118500
     34 H14          2.4890     0.4980    -1.7600 hn         1 79V       0.267800
     35 H16         -1.6750     0.3660    -0.9440 ho         1 79V       0.393000
     36 N18          4.6950     2.2530    -0.1690 n1         1 79V      -0.360800
@<TRIPOS>BOND
     1     1     4 1   
     2     1    19 1   
     3     1    21 1   
     4     1    22 1   
     5     2     3 1   
     6     2    36 3   
     7     3     8 1   
     8     3    18 1   
     9     3    23 1   
    10     4     8 1   
    11     4    18 1   
    12     4    24 1   
    13     5     6 ar  
    14     5     8 1   
    15     5    17 ar  
    16     6     7 ar  
    17     6    25 1   
    18     7    15 ar  
    19     7    26 1   
    20     8    27 1   
    21     9    10 ar  
    22     9    14 ar  
    23     9    28 1   
    24    10    11 ar  
    25    10    29 1   
    26    11    12 ar  
    27    11    30 1   
    28    12    13 ar  
    29    12    20 1   
    30    13    14 ar  
    31    13    15 1   
    32    14    31 1   
    33    15    16 ar  
    34    16    17 ar  
    35    16    32 1   
    36    17    33 1   
    37    18    34 1   
    38    19    35 1   
@<TRIPOS>SUBSTRUCTURE
     1 79V         1 TEMP              0 ****  ****    0 ROOT
