@<TRIPOS>MOLECULE
molecule
   36    38     1     0     0
SMALL
bcc


@<TRIPOS>ATOM
      1 C19          0.0000     0.0000     0.0000 c3         1 79V       0.155400
      2 C17          4.1360     1.2660    -0.0920 c1         1 79V       0.191700
      3 C16          3.3920     0.0000     0.0000 cy         1 79V       0.170600
      4 C14          1.4240     0.5590    -0.0200 cy         1 79V       0.123500
      5 C10          1.9220    -1.3740     1.5720 ca         1 79V      -0.070300
      6 C11          1.2860    -1.5240     2.7920 ca         1 79V      -0.117500
      7 C12          0.9220    -2.7790     3.2330 ca         1 79V      -0.110500
      8 C13          2.3170     0.0000     1.0960 cy         1 79V      -0.032400
      9 C01          0.7830    -6.9310     4.6320 ca         1 79V      -0.143000
     10 C02          0.0800    -7.7760     3.7940 ca         1 79V      -0.101000
     11 C03         -0.2630    -7.3660     2.5170 ca         1 79V      -0.166000
     12 C04          0.0960    -6.1070     2.0750 ca         1 79V       0.142900
     13 C05          0.8060    -5.2510     2.9170 cp         1 79V      -0.077000
     14 C06          1.1480    -5.6710     4.2010 ca         1 79V      -0.092000
     15 C07          1.1960    -3.8980     2.4480 cp         1 79V      -0.038000
     16 C08          1.8360    -3.7410     1.2210 ca         1 79V      -0.110500
     17 C09          2.2000    -2.4810     0.7910 ca         1 79V      -0.117500
     18 N15          2.3060    -0.1160    -0.9910 n6         1 79V      -0.724200
     19 O20         -0.7720     0.6250    -1.0280 oh         1 79V      -0.613800
     20 F21         -0.2390    -5.7070     0.8280 f          1 79V      -0.136900
     21 H1           0.0300    -1.0690    -0.1700 h1         1 79V       0.038700
     22 H2          -0.4530     0.2000     0.9640 h1         1 79V       0.038700
     23 H3           4.0210    -0.8810     0.0340 h1         1 79V       0.109700
     24 H4           1.4750     1.6390    -0.0930 h1         1 79V       0.072700
     25 H5           1.0730    -0.6540     3.4020 ha         1 79V       0.143000
     26 H6           0.4240    -2.8950     4.1880 ha         1 79V       0.139500
     27 H7           2.5130     0.7180     1.8830 hc         1 79V       0.076700
     28 H8           1.0480    -7.2580     5.6300 ha         1 79V       0.136000
     29 H9          -0.2030    -8.7640     4.1370 ha         1 79V       0.137000
     30 H10         -0.8140    -8.0330     1.8650 ha         1 79V       0.147000
     31 H11          1.6980    -5.0100     4.8600 ha         1 79V       0.141000
     32 H12          2.0520    -4.6070     0.6060 ha         1 79V       0.139500
     33 H13          2.6980    -2.3590    -0.1640 ha         1 79V       0.143000
     34 H14          2.4890     0.4980    -1.7600 hn         1 79V       0.350800
     35 H16         -1.6750     0.3660    -0.9440 ho         1 79V       0.406000
     36 N18          4.6950     2.2530    -0.1690 n1         1 79V      -0.349800
@<TRIPOS>BOND
     1    10     9 ar  
     2    10    11 ar  
     3     9    14 ar  
     4    11    12 ar  
     5    14    13 ar  
     6    12    13 ar  
     7    12    20 1   
     8    13    15 1   
     9    15     7 ar  
    10    15    16 ar  
    11     7     6 ar  
    12    16    17 ar  
    13     6     5 ar  
    14    19     1 1   
    15    17     5 ar  
    16     5     8 1   
    17     1     4 1   
    18     8     4 1   
    19     8     3 1   
    20     4    18 1   
    21     3    18 1   
    22     3     2 1   
    23     2    36 3   
    24     1    21 1   
    25     1    22 1   
    26     3    23 1   
    27     4    24 1   
    28     6    25 1   
    29     7    26 1   
    30     8    27 1   
    31     9    28 1   
    32    10    29 1   
    33    11    30 1   
    34    14    31 1   
    35    16    32 1   
    36    17    33 1   
    37    18    34 1   
    38    19    35 1   
@<TRIPOS>SUBSTRUCTURE
     1 79V         1 TEMP              0 ****  ****    0 ROOT
