@<TRIPOS>MOLECULE
79W
   26    27     1     0     0
SMALL
bcc


@<TRIPOS>ATOM
      1 OAH         0.1220   -0.0760   -0.2780 o         1 79W     -0.521100
      2 CAG         1.3390   -0.0130   -0.0950 c         1 79W      0.575500
      3 CAE         1.9610   -0.0090    1.2410 ca        1 79W     -0.196600
      4 CAD         3.3560    0.0240    1.3550 ca        1 79W     -0.069000
      5 CAF         1.1680   -0.0370    2.3940 ca        1 79W     -0.058000
      6 CAA         1.7700   -0.0270    3.6510 ca        1 79W     -0.137000
      7 CAB         3.1580    0.0050    3.7650 ca        1 79W     -0.082000
      8 CAC         3.9620    0.0320    2.6150 ca        1 79W     -0.093300
      9 CAI         5.4450    0.0440    2.7170 c3        1 79W     -0.198600
     10 CAJ         5.9820   -1.2360    3.3360 c3        1 79W     -0.163400
     11 CAK         7.2600   -0.9180    4.0680 c         1 79W      0.602100
     12 OAP         8.0500   -1.7640    4.4760 o         1 79W     -0.486100
     13 CAL         7.4330    0.5590    4.2410 c3        1 79W     -0.446600
     14 SAM         6.1070    1.4160    3.5800 s6        1 79W      1.308000
     15 OAO         6.5650    2.3560    2.6540 o         1 79W     -0.634300
     16 OAN         5.2810    1.8530    4.6150 o         1 79W     -0.634300
     17 HAD         3.9750    0.0450    0.4440 ha        1 79W      0.137000
     18 HAF         0.0710   -0.0640    2.2920 ha        1 79W      0.160000
     19 HAA         1.1480   -0.0400    4.5590 ha        1 79W      0.147000
     20 HAB         3.6240    0.0400    4.7640 ha        1 79W      0.153000
     21 HAI         5.8570    0.1020    1.6630 h1        1 79W      0.123700
     22 HAJ1        5.2460   -1.6730    4.0640 hc        1 79W      0.098700
     23 HAJ2        6.1720   -2.0160    2.5540 hc        1 79W      0.098700
     24 HAL1        7.5640    0.7740    5.3380 h1        1 79W      0.157700
     25 HAL2        8.4090    0.8620    3.7700 h1        1 79W      0.157700
     26 HAG         2.0530    0.0470   -0.9480 h4        1 79W      0.001200
@<TRIPOS>BOND
     1    1    2 2   
     2    2    3 1   
     3    2   26 1   
     4    3    4 ar  
     5    3    5 ar  
     6    4    8 ar  
     7    4   17 1   
     8    5    6 ar  
     9    5   18 1   
    10    6    7 ar  
    11    6   19 1   
    12    7    8 ar  
    13    7   20 1   
    14    8    9 1   
    15    9   10 1   
    16    9   14 1   
    17    9   21 1   
    18   10   11 1   
    19   10   22 1   
    20   10   23 1   
    21   11   12 2   
    22   11   13 1   
    23   13   14 1   
    24   13   24 1   
    25   13   25 1   
    26   14   15 2   
    27   14   16 2   
@<TRIPOS>SUBSTRUCTURE
     1 79W         1 TEMP              0 ****  ****    0 ROOT
