@<TRIPOS>MOLECULE
molecule
   26    27     1     0     0
SMALL
bcc


@<TRIPOS>ATOM
      1 OAH          0.0000     0.0000     0.0000 o          1 79W      -0.520100
      2 CAG          1.2130     0.0000     0.0000 c          1 79W       0.580500
      3 CAE          1.9490     0.0000     1.2740 ca         1 79W      -0.197600
      4 CAD          3.3470    -0.0000     1.2790 ca         1 79W      -0.066000
      5 CAF          1.2530     0.0060     2.4870 ca         1 79W      -0.055000
      6 CAA          1.9500     0.0060     3.6780 ca         1 79W      -0.132000
      7 CAB          3.3330     0.0000     3.6730 ca         1 79W      -0.073000
      8 CAC          4.0290    -0.0010     2.4770 ca         1 79W      -0.096300
      9 CAI          5.5360    -0.0010     2.4840 c3         1 79W      -0.110600
     10 CAJ          6.0700    -1.2330     3.2410 c3         1 79W      -0.177400
     11 CAK          7.3600    -0.8570     3.9400 c          1 79W       0.577100
     12 OAP          8.3930    -1.4840     3.9220 o          1 79W      -0.456100
     13 CAL          7.1140     0.4610     4.6700 c3         1 79W      -0.310600
     14 SAM          6.1700     1.4310     3.4320 s6         1 79W       1.082000
     15 OAO          7.0740     2.1700     2.6230 o          1 79W      -0.590800
     16 OAN          5.0880     2.0900     4.0730 o          1 79W      -0.590800
     17 HAD          3.8930    -0.0010     0.3430 ha         1 79W       0.136000
     18 HAF          0.1690     0.0100     2.4920 ha         1 79W       0.158000
     19 HAA          1.4120     0.0090     4.6180 ha         1 79W       0.143000
     20 HAB          3.8750     0.0000     4.6120 ha         1 79W       0.133000
     21 HAI          5.9240     0.0170     1.4730 h1         1 79W       0.121700
     22 HAJ1         6.2600    -2.0350     2.5380 hc         1 79W       0.090200
     23 HAJ2         5.3400    -1.5520     3.9750 hc         1 79W       0.090200
     24 HAL1         8.0520     0.9490     4.9060 h1         1 79W       0.130700
     25 HAL2         6.5210     0.2990     5.5630 h1         1 79W       0.130700
     26 HAG          1.7540     0.0030    -0.9380 h4         1 79W       0.003200
@<TRIPOS>BOND
     1     1     2 2   
     2     2     3 1   
     3     3     4 ar  
     4     3     5 ar  
     5     4     8 ar  
     6     5     6 ar  
     7     6     7 ar  
     8     7     8 ar  
     9     8     9 1   
    10     9    10 1   
    11     9    14 1   
    12    10    11 1   
    13    11    12 2   
    14    11    13 1   
    15    13    14 1   
    16    14    15 2   
    17    14    16 2   
    18     2    26 1   
    19     4    17 1   
    20     5    18 1   
    21     6    19 1   
    22     7    20 1   
    23     9    21 1   
    24    10    22 1   
    25    10    23 1   
    26    13    24 1   
    27    13    25 1   
@<TRIPOS>SUBSTRUCTURE
     1 79W         1 TEMP              0 ****  ****    0 ROOT
