@<TRIPOS>MOLECULE
79X
   35    38     1     0     0
SMALL
bcc


@<TRIPOS>ATOM
      1 C1         -0.0310   -0.0700   -0.0950 ca        1 79X     -0.110000
      2 N1          3.4170   -0.0400    0.9570 n         1 79X     -0.287200
      3 O1         -2.0970   -0.1010    1.0400 oh        1 79X     -0.500100
      4 C2          1.3560   -0.0550   -0.0550 ca        1 79X     -0.078800
      5 O2          4.8240   -0.0400    2.8490 o         1 79X     -0.567500
      6 C3          2.0450   -0.0570    1.2220 ca        1 79X      0.025600
      7 O3          8.0040    0.0410   -2.9130 os        1 79X     -0.297900
      8 C4          1.3370   -0.0750    2.4270 ca        1 79X     -0.099000
      9 O4          9.1920    0.0360   -0.6170 os        1 79X     -0.300900
     10 C5         -0.0520   -0.0890    2.3650 ca        1 79X     -0.182000
     11 C6         -0.7200   -0.0870    1.1260 ca        1 79X      0.097100
     12 C7          2.3690   -0.0360   -1.1060 cc        1 79X     -0.108200
     13 C8          3.5950   -0.0270   -0.4790 cd        1 79X      0.014400
     14 C10         4.6660   -0.0320    1.6280 c         1 79X      0.752100
     15 C11         5.6920   -0.0120    0.5320 ca        1 79X     -0.165600
     16 C12         5.0330   -0.0090   -0.7350 ca        1 79X     -0.006800
     17 C13         5.7580    0.0080   -1.9120 ca        1 79X     -0.156000
     18 C14         7.1620    0.0230   -1.8230 ca        1 79X      0.128100
     19 C15         7.8140    0.0200   -0.5620 ca        1 79X      0.087100
     20 C16         7.0700    0.0030    0.6290 ca        1 79X     -0.098000
     21 C21         7.3790    0.0430   -4.1920 c3        1 79X      0.107700
     22 C23         9.8670    0.0330    0.6380 c3        1 79X      0.107700
     23 H1         -0.5830   -0.0680   -1.0440 ha        1 79X      0.156000
     24 HO1        -2.4500   -0.1120    1.9410 ho        1 79X      0.418000
     25 H4          1.8640   -0.0770    3.3920 ha        1 79X      0.157000
     26 H5         -0.6360   -0.1030    3.2970 ha        1 79X      0.137000
     27 H7          2.1630   -0.0290   -2.1730 ha        1 79X      0.164000
     28 H13         5.2510    0.0100   -2.8860 ha        1 79X      0.154000
     29 H16         7.5600    0.0000    1.6140 ha        1 79X      0.163000
     30 H21         8.2470    0.0580   -4.8990 h1        1 79X      0.048700
     31 H21A        6.7490    0.9560   -4.3230 h1        1 79X      0.048700
     32 H21B        6.7690   -0.8810   -4.3370 h1        1 79X      0.048700
     33 H23         9.6060    0.9440    1.2290 h1        1 79X      0.048033
     34 H23A        9.6260   -0.8930    1.2140 h1        1 79X      0.048033
     35 H23B       10.9480    0.0470    0.3460 h1        1 79X      0.048033
@<TRIPOS>BOND
     1    1    4 ar  
     2    1   11 ar  
     3    1   23 1   
     4    2    6 1   
     5    2   13 1   
     6    2   14 1   
     7    3   11 1   
     8    3   24 1   
     9    4    6 ar  
    10    4   12 1   
    11    5   14 2   
    12    6    8 ar  
    13    7   18 1   
    14    7   21 1   
    15    8   10 ar  
    16    8   25 1   
    17    9   19 1   
    18    9   22 1   
    19   10   11 ar  
    20   10   26 1   
    21   12   13 2   
    22   12   27 1   
    23   13   16 1   
    24   14   15 1   
    25   15   16 ar  
    26   15   20 ar  
    27   16   17 ar  
    28   17   18 ar  
    29   17   28 1   
    30   18   19 ar  
    31   19   20 ar  
    32   20   29 1   
    33   21   30 1   
    34   21   31 1   
    35   21   32 1   
    36   22   33 1   
    37   22   34 1   
    38   22   35 1   
@<TRIPOS>SUBSTRUCTURE
     1 79X         1 TEMP              0 ****  ****    0 ROOT
