@<TRIPOS>MOLECULE
molecule
   35    38     1     0     0
SMALL
bcc


@<TRIPOS>ATOM
      1 C1           0.0000     0.0000     0.0000 ca         1 79X      -0.111000
      2 N1           3.4600     0.0010     0.9190 n          1 79X      -0.246200
      3 O1          -2.0420     0.0000     1.2100 oh         1 79X      -0.520100
      4 C2           1.3970     0.0000     0.0000 ca         1 79X      -0.089800
      5 O2           4.8430     0.0020     2.7340 o          1 79X      -0.576500
      6 C3           2.0970     0.0000     1.2180 ca         1 79X       0.039600
      7 O3           7.9400     0.0040    -2.9820 os         1 79X      -0.304900
      8 C4           1.3960    -0.0000     2.4150 ca         1 79X      -0.112000
      9 O4           9.2090     0.0030    -0.5460 os         1 79X      -0.308900
     10 C5           0.0170     0.0000     2.4050 ca         1 79X      -0.131000
     11 C6          -0.6820     0.0000     1.2020 ca         1 79X       0.088100
     12 C7           2.4080     0.0010    -1.0570 cc         1 79X      -0.120200
     13 C8           3.6240     0.0010    -0.4500 cd         1 79X       0.010400
     14 C10          4.6640     0.0020     1.5310 c          1 79X       0.742100
     15 C11          5.7220     0.0020     0.5130 ca         1 79X      -0.172600
     16 C12          5.0730     0.0020    -0.7390 ca         1 79X      -0.015800
     17 C13          5.8210     0.0020    -1.9080 ca         1 79X      -0.173000
     18 C14          7.2060     0.0030    -1.8390 ca         1 79X       0.149100
     19 C15          7.8500     0.0030    -0.6010 ca         1 79X       0.108100
     20 C16          7.1150     0.0020     0.5710 ca         1 79X      -0.110000
     21 C21          7.2190     0.0040    -4.2160 c3         1 79X       0.123700
     22 C23          9.8060     0.0020     0.7520 c3         1 79X       0.123700
     23 H1          -0.5420     0.1200    -0.9300 ha         1 79X       0.147000
     24 HO1         -2.3570    -0.8890     1.2150 ho         1 79X       0.418000
     25 H4           1.9320    -0.0000     3.3560 ha         1 79X       0.153000
     26 H5          -0.5270     0.0000     3.3420 ha         1 79X       0.147000
     27 H7           2.2240    -0.1450    -2.1150 ha         1 79X       0.160000
     28 H13          5.3260     0.0910    -2.8680 ha         1 79X       0.151000
     29 H16          7.6170    -0.0970     1.5250 ha         1 79X       0.160000
     30 H21          7.9180    -0.0140    -5.0430 h1         1 79X       0.045367
     31 H21A         6.5820    -0.8720    -4.2620 h1         1 79X       0.045367
     32 H21B         6.6090     0.8970    -4.2780 h1         1 79X       0.045367
     33 H23          9.4760     0.8760     1.3010 h1         1 79X       0.045033
     34 H23A         9.5090    -0.8920     1.2860 h1         1 79X       0.045033
     35 H23B        10.8840     0.0230     0.6540 h1         1 79X       0.045033
@<TRIPOS>BOND
     1     1     4 ar  
     2     1    11 ar  
     3     1    23 1   
     4    13     2 1   
     5     6     2 1   
     6     2    14 1   
     7     3    11 1   
     8     3    24 1   
     9    12     4 1   
    10     4     6 ar  
    11    14     5 2   
    12     6     8 ar  
    13    21     7 1   
    14     7    18 1   
    15    10     8 ar  
    16     8    25 1   
    17    19     9 1   
    18     9    22 1   
    19    11    10 ar  
    20    10    26 1   
    21    12    13 2   
    22    12    27 1   
    23    13    16 1   
    24    15    14 1   
    25    16    15 ar  
    26    15    20 ar  
    27    17    16 ar  
    28    17    18 ar  
    29    17    28 1   
    30    18    19 ar  
    31    19    20 ar  
    32    20    29 1   
    33    21    30 1   
    34    21    31 1   
    35    21    32 1   
    36    22    33 1   
    37    22    34 1   
    38    22    35 1   
@<TRIPOS>SUBSTRUCTURE
     1 79X         1 TEMP              0 ****  ****    0 ROOT
