@<TRIPOS>MOLECULE
79Y
   48    51     1     0     0
SMALL
bcc


@<TRIPOS>ATOM
      1 C6           0.0000     0.0000     0.0000 c3         1 79Y       0.192800
      2 C7           1.5330     0.0000     0.0000 c3         1 79Y       0.207400
      3 C13          3.0640     0.0990     3.8370 cc         1 79Y      -0.084400
      4 C15          2.5260     1.8020     5.5700 cc         1 79Y       0.515900
      5 C17          2.3540     2.6840     6.7440 ca         1 79Y      -0.146500
      6 C20          2.0400     4.3460     8.9420 ca         1 79Y      -0.074000
      7 C21          2.7960     3.1950     9.0580 ca         1 79Y      -0.097000
      8 C22          2.9650     2.3610     7.9630 ca         1 79Y      -0.076400
      9 C24          4.9260     1.2480     8.7090 c          1 79Y       0.528600
     10 C26          5.7910     0.0550     8.7340 cc         1 79Y       0.105000
     11 C28          7.4720    -1.2970     9.1260 cc         1 79Y      -0.441600
     12 C1          -3.1820     1.4680     0.7790 c3         1 79Y       0.013700
     13 S2          -1.5880     2.1920     0.3060 s6         1 79Y       0.966900
     14 O3          -1.4330     2.1750    -1.1070 o          1 79Y      -0.583800
     15 O4          -1.3330     3.3700     1.0570 o          1 79Y      -0.583800
     16 N5          -0.4630     1.1060     0.8530 n3         1 79Y      -0.549500
     17 O8           2.0040     0.0000     1.3500 os         1 79Y      -0.414600
     18 C9           1.6300     1.1590     2.0990 c3         1 79Y       0.147800
     19 C11          0.1020     1.2200     2.2070 c3         1 79Y       0.201800
     20 C12          2.2290     1.0810     3.4800 cd         1 79Y       0.312600
     21 S14          3.5320     0.3560     5.5170 ss         1 79Y      -0.327300
     22 N16          1.9620     1.9720     4.4080 nd         1 79Y      -0.549000
     23 C18          1.5880     3.8450     6.6410 ca         1 79Y      -0.051000
     24 C19          1.4360     4.6680     7.7380 ca         1 79Y      -0.114000
     25 N23          3.7370     1.2040     8.0760 ns         1 79Y      -0.035100
     26 O25          5.2860     2.2710     9.2590 o          1 79Y      -0.664100
     27 N27          7.0150    -0.0340     9.3370 na         1 79Y       0.334100
     28 C29          6.5240    -1.9480     8.4080 cd         1 79Y       0.319200
     29 N30          5.5160    -1.1090     8.1850 nd         1 79Y      -0.591000
     30 H1          -0.3640     0.1430    -1.0100 h1         1 79Y       0.029700
     31 H2          -0.3640    -0.9410     0.3950 h1         1 79Y       0.029700
     32 H3           1.8940     0.8860    -0.5080 h1         1 79Y       0.015700
     33 H4           1.8940    -0.8860    -0.5080 h1         1 79Y       0.015700
     34 H5           3.3950    -0.7140     3.2030 h4         1 79Y       0.173000
     35 H6           1.9130     4.9960     9.7990 ha         1 79Y       0.104000
     36 H7           3.2660     2.9500    10.0030 ha         1 79Y       0.132000
     37 H8           8.4150    -1.7070     9.4690 h4         1 79Y       0.156000
     38 H9          -3.2220     1.3530     1.8560 h1         1 79Y       0.061367
     39 H10         -3.2930     0.4980     0.3080 h1         1 79Y       0.061367
     40 H11         -3.9850     2.1200     0.4560 h1         1 79Y       0.061367
     41 H12          1.9900     2.0460     1.5930 h1         1 79Y       0.032700
     42 H13         -0.1940     2.1640     2.6470 h1         1 79Y       0.038200
     43 H14         -0.2520     0.3990     2.8190 h1         1 79Y       0.038200
     44 H15          1.1140     4.1000     5.7010 ha         1 79Y       0.126000
     45 H16          0.8420     5.5710     7.6570 ha         1 79Y       0.107000
     46 H17          3.3830     0.3320     7.7380 hn         1 79Y       0.214500
     47 H18          7.4860     0.6940     9.8380 hn         1 79Y       0.132700
     48 H19          6.5780    -2.9770     8.0730 h4         1 79Y       0.006100
@<TRIPOS>BOND
     1     1     2 1   
     2     1    16 1   
     3     1    30 1   
     4     1    31 1   
     5     2    17 1   
     6     2    32 1   
     7     2    33 1   
     8     3    20 2   
     9     3    21 1   
    10     3    34 1   
    11     4     5 1   
    12     4    21 1   
    13     4    22 2   
    14     5     8 ar  
    15     5    23 ar  
    16     6     7 ar  
    17     6    24 ar  
    18     6    35 1   
    19     7     8 ar  
    20     7    36 1   
    21     8    25 1   
    22     9    10 1   
    23     9    25 1   
    24     9    26 2   
    25    10    27 1   
    26    10    29 2   
    27    11    27 1   
    28    11    28 2   
    29    11    37 1   
    30    12    13 1   
    31    12    38 1   
    32    12    39 1   
    33    12    40 1   
    34    13    14 2   
    35    13    15 2   
    36    13    16 1   
    37    16    19 1   
    38    17    18 1   
    39    18    19 1   
    40    18    20 1   
    41    18    41 1   
    42    19    42 1   
    43    19    43 1   
    44    20    22 1   
    45    23    24 ar  
    46    23    44 1   
    47    24    45 1   
    48    25    46 1   
    49    27    47 1   
    50    28    29 1   
    51    28    48 1   
@<TRIPOS>SUBSTRUCTURE
     1 79Y         1 TEMP              0 ****  ****    0 ROOT
