@<TRIPOS>MOLECULE
79Z
   55    58     1     0     0
SMALL
bcc


@<TRIPOS>ATOM
      1 C1          0.1890   -0.3170    1.0320 cx        1 79Z     -0.109400
      2 C2          1.4610   -0.2540    0.2150 cx        1 79Z     -0.123400
      3 C3          1.4540    0.1620    1.6690 cx        1 79Z     -0.109400
      4 C4          3.8500   -7.3030   -0.4310 ca        1 79Z     -0.160800
      5 C5          3.0620   -8.3560    0.0640 ca        1 79Z     -0.037000
      6 C6          3.4780   -9.6720   -0.0730 ca        1 79Z     -0.179000
      7 C7          4.7000   -9.9560   -0.7180 ca        1 79Z      0.201900
      8 C8          5.4910   -8.9050   -1.2320 ca        1 79Z     -0.179000
      9 C9          5.0590   -7.5950   -1.0950 ca        1 79Z     -0.037000
     10 C10         2.1630   -1.4740   -0.2120 ca        1 79Z      0.021700
     11 C11         2.9740   -1.4810   -1.3910 ca        1 79Z      0.172600
     12 C12         3.5480   -2.6900   -1.8480 ca        1 79Z     -0.094000
     13 C13         2.0280   -2.6380    0.5590 ca        1 79Z     -0.141000
     14 C14         2.6470   -3.8170    0.1650 ca        1 79Z     -0.081800
     15 C15         3.3590   -3.8140   -1.0650 ca        1 79Z      0.051100
     16 O16         3.8370   -5.1040   -1.3550 os        1 79Z     -0.164200
     17 C17         3.4320   -5.9300   -0.3120 cc        1 79Z      0.315900
     18 C18         2.7370   -5.1860    0.6630 cd        1 79Z     -0.311400
     19 C19         2.2740   -5.6690    1.9240 c         1 79Z      0.615300
     20 O20         1.8990   -6.7790    2.2820 o         1 79Z     -0.458100
     21 N21         2.2990   -4.6320    3.0540 n4        1 79Z     -0.675800
     22 C22         0.9530   -4.4100    3.6220 c3        1 79Z      0.080100
     23 N23         3.2400   -0.3070   -2.1280 nh        1 79Z     -0.693900
     24 S24         4.3310    0.8370   -1.6380 s6        1 79Z      1.465900
     25 O25         3.8800    2.0970   -2.0750 o         1 79Z     -0.640300
     26 O26         4.6280    0.6780   -0.2740 o         1 79Z     -0.640300
     27 C27         5.7130    0.4350   -2.5340 c3        1 79Z     -0.372300
     28 F28         5.1120  -11.2320   -0.8470 f         1 79Z     -0.104900
     29 C29         2.4990   -0.1070   -3.3520 c3        1 79Z      0.180800
     30 C30         1.1140    0.5430   -3.2030 c3        1 79Z      0.113400
     31 O31         1.1190    1.6940   -2.3910 oh        1 79Z     -0.605800
     32 H11        -0.6060    0.4150    0.7960 hc        1 79Z      0.077200
     33 H21        -0.2350   -1.2950    1.3170 hc        1 79Z      0.077200
     34 H2          1.4950    0.5730   -0.5330 hc        1 79Z      0.132700
     35 H13         1.5750    1.2350    1.9040 hc        1 79Z      0.077200
     36 H23         1.9670   -0.4790    2.4080 hc        1 79Z      0.077200
     37 H5          2.0940   -8.1470    0.5500 ha        1 79Z      0.161000
     38 H6          2.8610  -10.5000    0.3110 ha        1 79Z      0.174500
     39 H8          6.4390   -9.1370   -1.7430 ha        1 79Z      0.174500
     40 H9          5.6670   -6.7730   -1.5080 ha        1 79Z      0.161000
     41 H12         4.1230   -2.7450   -2.7850 ha        1 79Z      0.173000
     42 H13A        1.3910   -2.5990    1.4550 ha        1 79Z      0.125000
     43 HN21        2.9180   -4.9900    3.7910 hn        1 79Z      0.462300
     44 H122        0.2810   -3.9710    2.8360 hx        1 79Z      0.109700
     45 H222        0.5290   -5.3950    3.9620 hx        1 79Z      0.109700
     46 H322        1.0240   -3.7070    4.4940 hx        1 79Z      0.109700
     47 H127        5.5810    0.5380   -3.6390 h1        1 79Z      0.122367
     48 H227        6.5600    1.1210   -2.2660 h1        1 79Z      0.122367
     49 H327        6.0910   -0.6000   -2.3510 h1        1 79Z      0.122367
     50 H129        2.3610   -1.0950   -3.8770 h1        1 79Z      0.060700
     51 H229        3.1290    0.5550   -4.0180 h1        1 79Z      0.060700
     52 H130        0.7390    0.7890   -4.2340 h1        1 79Z      0.058200
     53 H230        0.3950   -0.1560   -2.6980 h1        1 79Z      0.058200
     54 HO31        1.7690    2.3190   -2.7470 ho        1 79Z      0.434000
     55 H212        2.6880   -3.7480    2.7010 hn        1 79Z      0.462300
@<TRIPOS>BOND
     1    1    2 1   
     2    1    3 1   
     3    1   32 1   
     4    1   33 1   
     5    2    3 1   
     6    2   10 1   
     7    2   34 1   
     8    3   35 1   
     9    3   36 1   
    10    4    5 ar  
    11    4    9 ar  
    12    4   17 1   
    13    5    6 ar  
    14    5   37 1   
    15    6    7 ar  
    16    6   38 1   
    17    7    8 ar  
    18    7   28 1   
    19    8    9 ar  
    20    8   39 1   
    21    9   40 1   
    22   10   11 ar  
    23   10   13 ar  
    24   11   12 ar  
    25   11   23 1   
    26   12   15 ar  
    27   12   41 1   
    28   13   14 ar  
    29   13   42 1   
    30   14   15 ar  
    31   14   18 1   
    32   15   16 1   
    33   16   17 1   
    34   17   18 2   
    35   18   19 1   
    36   19   20 2   
    37   19   21 1   
    38   21   22 1   
    39   21   43 1   
    40   21   55 1   
    41   22   44 1   
    42   22   45 1   
    43   22   46 1   
    44   23   24 1   
    45   23   29 1   
    46   24   25 2   
    47   24   26 2   
    48   24   27 1   
    49   27   47 1   
    50   27   48 1   
    51   27   49 1   
    52   29   30 1   
    53   29   50 1   
    54   29   51 1   
    55   30   31 1   
    56   30   52 1   
    57   30   53 1   
    58   31   54 1   
@<TRIPOS>SUBSTRUCTURE
     1 79Z         1 TEMP              0 ****  ****    0 ROOT
