@<TRIPOS>MOLECULE
7A1
   74    77     1     0     0
SMALL
bcc


@<TRIPOS>ATOM
      1 C21          0.0000     0.0000     0.0000 ca         1 7A1      -0.050000
      2 C6          -4.2450     0.0110     2.4230 ca         1 7A1       0.013000
      3 C29          8.3170     0.6360    -1.5450 ca         1 7A1      -0.016000
      4 C20          1.3780     0.0000     0.0000 ca         1 7A1      -0.098000
      5 C1          -2.8660     0.0110     2.4240 ca         1 7A1      -0.315300
      6 C30          9.6980     0.7210    -1.5500 ca         1 7A1      -0.292300
      7 C17          0.0020     0.0110     2.4150 ca         1 7A1      -0.102000
      8 C33          8.2640     2.7660    -0.4610 ca         1 7A1       0.474200
      9 C16         -0.6980     0.0050     1.2080 cp         1 7A1      -0.160500
     10 C5          -4.9130     0.0010     1.1900 ca         1 7A1      -0.389900
     11 C28          7.5920     1.6810    -0.9880 ca         1 7A1      -0.260600
     12 C19          2.0740     0.0000     1.2030 ca         1 7A1      -0.084400
     13 C18          1.3820    -0.0000     2.4110 ca         1 7A1       0.048900
     14 C2          -2.1790     0.0060     1.2090 cp         1 7A1       0.527800
     15 C31         10.3100     1.8410    -0.9980 ca         1 7A1       0.514200
     16 C4          -4.1550    -0.0100     0.0050 ca         1 7A1       0.590200
     17 C24          4.1440     0.6640     0.2390 c          1 7A1       0.569100
     18 C37        -13.2710     0.6070     4.2710 c3         1 7A1      -0.027400
     19 C36        -12.6860    -0.7210     4.7610 c3         1 7A1      -0.023900
     20 C38        -12.6200     0.9790     2.9360 c3         1 7A1      -0.023900
     21 C35        -11.1670    -0.5880     4.8900 c3         1 7A1       0.149800
     22 C39        -11.1040     1.0630     3.1170 c3         1 7A1       0.149800
     23 C15         -4.9630    -0.1340    -3.6570 c3         1 7A1      -0.005100
     24 C27          6.2190     1.4590    -0.7600 c3         1 7A1       0.086300
     25 C14         -4.0180    -0.1500    -2.4530 c3         1 7A1       0.160800
     26 C10         -8.5630    -0.1040     2.2210 c3         1 7A1       0.038000
     27 C11         -9.1250    -0.2310     3.6390 c3         1 7A1       0.140800
     28 N32          9.5840     2.8150    -0.4700 nb         1 7A1      -0.645000
     29 N3          -2.8340     0.0010     0.0540 nb         1 7A1      -0.667000
     30 N34         11.6840     1.8160    -0.7880 nv         1 7A1      -0.546500
     31 N22          3.4720     0.0000     1.2000 ns         1 7A1      -0.043100
     32 N13         -4.7970    -0.0200    -1.2190 nu         1 7A1      -0.524900
     33 N8          -7.1000    -0.1030     2.2750 ns         1 7A1      -0.191900
     34 N25          5.4890     0.7380     0.2850 ns         1 7A1      -0.200900
     35 N12        -10.5940    -0.2320     3.5860 n3         1 7A1      -0.530600
     36 O9          -6.9550     0.0930     0.0670 o          1 7A1      -0.683100
     37 O26          3.5370     1.1960    -0.6710 o          1 7A1      -0.694100
     38 F23          2.0600     0.0050     3.5780 f          1 7A1      -0.131900
     39 H1          -0.5410    -0.0020    -0.9380 ha         1 7A1       0.129000
     40 H2          -4.8000     0.0170     3.3540 ha         1 7A1       0.097000
     41 H4           1.9200    -0.0020    -0.9380 ha         1 7A1       0.156000
     42 H5          -2.3200     0.0190     3.3600 ha         1 7A1       0.124000
     43 H6          10.2950    -0.0750    -1.9790 ha         1 7A1       0.118000
     44 H7          -0.5370     0.0130     3.3540 ha         1 7A1       0.125000
     45 H8           7.7020     3.5820    -0.0230 h4         1 7A1      -0.018900
     46 H9         -14.3400     0.5030     4.1350 hc         1 7A1       0.013200
     47 H10        -13.0670     1.3820     5.0000 hc         1 7A1       0.013200
     48 H11        -13.1100    -0.9660     5.7280 hc         1 7A1       0.020200
     49 H12        -12.9210    -1.5030     4.0490 hc         1 7A1       0.020200
     50 H13        -12.9980     1.9400     2.6060 hc         1 7A1       0.020200
     51 H14        -12.8540     0.2210     2.1980 hc         1 7A1       0.020200
     52 H15        -10.7510    -1.5320     5.2200 h1         1 7A1       0.010450
     53 H16        -10.9340     0.1870     5.6100 h1         1 7A1       0.010450
     54 H17        -10.8710     1.8270     3.8480 h1         1 7A1       0.010450
     55 H18        -10.6420     1.3100     2.1690 h1         1 7A1       0.010450
     56 H19         -4.3870    -0.2170    -4.5700 hc         1 7A1       0.008367
     57 H20         -5.5210     0.7950    -3.6660 hc         1 7A1       0.008367
     58 H21         -5.6510    -0.9680    -3.5870 hc         1 7A1       0.008367
     59 H22          5.8400     0.7590    -1.4950 h1         1 7A1       0.029700
     60 H23          5.6830     2.3960    -0.8450 h1         1 7A1       0.029700
     61 H24         -3.3220     0.6770    -2.5290 h1         1 7A1       0.019200
     62 H25         -3.4690    -1.0830    -2.4370 h1         1 7A1       0.019200
     63 H26         -8.9090     0.8210     1.7770 h1         1 7A1       0.037200
     64 H27         -8.9020    -0.9410     1.6230 h1         1 7A1       0.037200
     65 H28         -8.7800    -1.1570     4.0830 h1         1 7A1       0.008700
     66 H29         -8.7860     0.6060     4.2380 h1         1 7A1       0.008700
     67 H30         12.2810     1.3470    -1.4390 hn         1 7A1       0.271800
     68 H31         12.0770     2.2760     0.0090 hn         1 7A1       0.271800
     69 H32          3.9710    -0.4040     1.9680 hn         1 7A1       0.167500
     70 H33         -5.7970     0.0110    -1.2600 hn         1 7A1       0.367800
     71 H34         -6.6310    -0.1810     3.1550 hn         1 7A1       0.179500
     72 H35          5.9910     0.2640     1.0100 hn         1 7A1       0.153500
     73 C7          -6.3840     0.0000     1.1370 c          1 7A1       0.631700
     74 H3           7.8130    -0.2250    -1.9660 ha         1 7A1       0.111000
@<TRIPOS>BOND
     1     1     4 ar  
     2     1     9 ar  
     3     1    39 1   
     4     2     5 ar  
     5     2    10 ar  
     6     2    40 1   
     7     3     6 ar  
     8     3    11 ar  
     9     3    74 1   
    10     4    12 ar  
    11     4    41 1   
    12     5    14 ar  
    13     5    42 1   
    14     6    15 ar  
    15     6    43 1   
    16     7     9 ar  
    17     7    13 ar  
    18     7    44 1   
    19     8    11 ar  
    20     8    28 ar  
    21     8    45 1   
    22     9    14 1   
    23    10    16 ar  
    24    10    73 1   
    25    11    24 1   
    26    12    13 ar  
    27    12    31 1   
    28    13    38 1   
    29    14    29 ar  
    30    15    28 ar  
    31    15    30 1   
    32    16    29 ar  
    33    16    32 1   
    34    17    31 1   
    35    17    34 1   
    36    17    37 2   
    37    18    19 1   
    38    18    20 1   
    39    18    46 1   
    40    18    47 1   
    41    19    21 1   
    42    19    48 1   
    43    19    49 1   
    44    20    22 1   
    45    20    50 1   
    46    20    51 1   
    47    21    35 1   
    48    21    52 1   
    49    21    53 1   
    50    22    35 1   
    51    22    54 1   
    52    22    55 1   
    53    23    25 1   
    54    23    56 1   
    55    23    57 1   
    56    23    58 1   
    57    24    34 1   
    58    24    59 1   
    59    24    60 1   
    60    25    32 1   
    61    25    61 1   
    62    25    62 1   
    63    26    27 1   
    64    26    33 1   
    65    26    63 1   
    66    26    64 1   
    67    27    35 1   
    68    27    65 1   
    69    27    66 1   
    70    30    67 1   
    71    30    68 1   
    72    31    69 1   
    73    32    70 1   
    74    33    71 1   
    75    33    73 1   
    76    34    72 1   
    77    36    73 2   
@<TRIPOS>SUBSTRUCTURE
     1 7A1         1 TEMP              0 ****  ****    0 ROOT
