@<TRIPOS>MOLECULE
molecule
   74    77     1     0     0
SMALL
bcc


@<TRIPOS>ATOM
      1 C21          0.0000     0.0000     0.0000 ca         1 7A1      -0.077000
      2 C6          -4.2450     0.0110     2.4230 ca         1 7A1      -0.020000
      3 C29          8.3170     0.6360    -1.5450 ca         1 7A1      -0.043000
      4 C20          1.3780     0.0000     0.0000 ca         1 7A1      -0.120000
      5 C1          -2.8660     0.0110     2.4240 ca         1 7A1      -0.327300
      6 C30          9.6980     0.7210    -1.5500 ca         1 7A1      -0.314300
      7 C17          0.0020     0.0110     2.4150 ca         1 7A1      -0.129000
      8 C33          8.2640     2.7660    -0.4610 ca         1 7A1       0.490200
      9 C16         -0.6980     0.0050     1.2080 cp         1 7A1      -0.156500
     10 C5          -4.9130     0.0010     1.1900 ca         1 7A1      -0.366900
     11 C28          7.5920     1.6810    -0.9880 ca         1 7A1      -0.266600
     12 C19          2.0740     0.0000     1.2030 ca         1 7A1       0.057600
     13 C18          1.3820    -0.0000     2.4110 ca         1 7A1       0.077900
     14 C2          -2.1790     0.0060     1.2090 cp         1 7A1       0.566800
     15 C31         10.3100     1.8410    -0.9980 ca         1 7A1       0.710200
     16 C4          -4.1550    -0.0100     0.0050 ca         1 7A1       0.763200
     17 C24          4.1440     0.6640     0.2390 c          1 7A1       0.789100
     18 C37        -13.2710     0.6070     4.2710 c3         1 7A1      -0.082400
     19 C36        -12.6860    -0.7210     4.7610 c3         1 7A1      -0.078400
     20 C38        -12.6200     0.9790     2.9360 c3         1 7A1      -0.078400
     21 C35        -11.1670    -0.5880     4.8900 c3         1 7A1       0.162800
     22 C39        -11.1040     1.0630     3.1170 c3         1 7A1       0.162800
     23 C15         -4.9630    -0.1340    -3.6570 c3         1 7A1      -0.111100
     24 C27          6.2190     1.4590    -0.7600 c3         1 7A1       0.151300
     25 C14         -4.0180    -0.1500    -2.4530 c3         1 7A1       0.229800
     26 C10         -8.5630    -0.1040     2.2210 c3         1 7A1       0.110000
     27 C11         -9.1250    -0.2310     3.6390 c3         1 7A1       0.144800
     28 N32          9.5840     2.8150    -0.4700 nb         1 7A1      -0.755000
     29 N3          -2.8340     0.0010     0.0540 nb         1 7A1      -0.774000
     30 N34         11.6840     1.8160    -0.7880 nv         1 7A1      -1.021500
     31 N22          3.4720     0.0000     1.2000 ns         1 7A1      -0.485100
     32 N13         -4.7970    -0.0200    -1.2190 nu         1 7A1      -0.899900
     33 N8          -7.1000    -0.1030     2.2750 ns         1 7A1      -0.581900
     34 N25          5.4890     0.7380     0.2850 ns         1 7A1      -0.596900
     35 N12        -10.5940    -0.2320     3.5860 n3         1 7A1      -0.724600
     36 O9          -6.9550     0.0930     0.0670 o          1 7A1      -0.641100
     37 O26          3.5370     1.1960    -0.6710 o          1 7A1      -0.646100
     38 F23          2.0600     0.0050     3.5780 f          1 7A1      -0.147900
     39 H1          -0.5410    -0.0020    -0.9380 ha         1 7A1       0.163000
     40 H2          -4.8000     0.0170     3.3540 ha         1 7A1       0.127000
     41 H4           1.9200    -0.0020    -0.9380 ha         1 7A1       0.180000
     42 H5          -2.3200     0.0190     3.3600 ha         1 7A1       0.140000
     43 H6          10.2950    -0.0750    -1.9790 ha         1 7A1       0.139000
     44 H7          -0.5370     0.0130     3.3540 ha         1 7A1       0.149000
     45 H8           7.7020     3.5820    -0.0230 h4         1 7A1       0.029100
     46 H9         -14.3400     0.5030     4.1350 hc         1 7A1       0.041200
     47 H10        -13.0670     1.3820     5.0000 hc         1 7A1       0.041200
     48 H11        -13.1100    -0.9660     5.7280 hc         1 7A1       0.049950
     49 H12        -12.9210    -1.5030     4.0490 hc         1 7A1       0.049950
     50 H13        -12.9980     1.9400     2.6060 hc         1 7A1       0.049950
     51 H14        -12.8540     0.2210     2.1980 hc         1 7A1       0.049950
     52 H15        -10.7510    -1.5320     5.2200 h1         1 7A1       0.034700
     53 H16        -10.9340     0.1870     5.6100 h1         1 7A1       0.034700
     54 H17        -10.8710     1.8270     3.8480 h1         1 7A1       0.034700
     55 H18        -10.6420     1.3100     2.1690 h1         1 7A1       0.034700
     56 H19         -4.3870    -0.2170    -4.5700 hc         1 7A1       0.043033
     57 H20         -5.5210     0.7950    -3.6660 hc         1 7A1       0.043033
     58 H21         -5.6510    -0.9680    -3.5870 hc         1 7A1       0.043033
     59 H22          5.8400     0.7590    -1.4950 h1         1 7A1       0.055200
     60 H23          5.6830     2.3960    -0.8450 h1         1 7A1       0.055200
     61 H24         -3.3220     0.6770    -2.5290 h1         1 7A1       0.046200
     62 H25         -3.4690    -1.0830    -2.4370 h1         1 7A1       0.046200
     63 H26         -8.9090     0.8210     1.7770 h1         1 7A1       0.062700
     64 H27         -8.9020    -0.9410     1.6230 h1         1 7A1       0.062700
     65 H28         -8.7800    -1.1570     4.0830 h1         1 7A1       0.035200
     66 H29         -8.7860     0.6060     4.2380 h1         1 7A1       0.035200
     67 H30         12.2810     1.3470    -1.4390 hn         1 7A1       0.440800
     68 H31         12.0770     2.2760     0.0090 hn         1 7A1       0.440800
     69 H32          3.9710    -0.4040     1.9680 hn         1 7A1       0.325500
     70 H33         -5.7970     0.0110    -1.2600 hn         1 7A1       0.494800
     71 H34         -6.6310    -0.1810     3.1550 hn         1 7A1       0.314500
     72 H35          5.9910     0.2640     1.0100 hn         1 7A1       0.295500
     73 C7          -6.3840     0.0000     1.1370 c          1 7A1       0.701700
     74 H3           7.8130    -0.2250    -1.9660 ha         1 7A1       0.143000
@<TRIPOS>BOND
     1    18    19 1   
     2    18    20 1   
     3    19    21 1   
     4    20    22 1   
     5    21    35 1   
     6    22    35 1   
     7    35    27 1   
     8    27    26 1   
     9    26    33 1   
    10    33    73 1   
    11    36    73 2   
    12    73    10 1   
    13    32    25 1   
    14    32    16 1   
    15    10    16 ar  
    16    10     2 ar  
    17    25    23 1   
    18    16    29 ar  
    19     2     5 ar  
    20    29    14 ar  
    21     5    14 ar  
    22    14     9 1   
    23     9     1 ar  
    24     9     7 ar  
    25     1     4 ar  
    26     7    13 ar  
    27     4    12 ar  
    28    13    12 ar  
    29    13    38 1   
    30    12    31 1   
    31    31    17 1   
    32    37    17 2   
    33    17    34 1   
    34    34    24 1   
    35    24    11 1   
    36    11     3 ar  
    37    11     8 ar  
    38     3     6 ar  
    39     8    28 ar  
    40     6    15 ar  
    41    28    15 ar  
    42    15    30 1   
    43     1    39 1   
    44     2    40 1   
    45     3    74 1   
    46     4    41 1   
    47     5    42 1   
    48     6    43 1   
    49     7    44 1   
    50     8    45 1   
    51    18    46 1   
    52    18    47 1   
    53    19    48 1   
    54    19    49 1   
    55    20    50 1   
    56    20    51 1   
    57    21    52 1   
    58    21    53 1   
    59    22    54 1   
    60    22    55 1   
    61    23    56 1   
    62    23    57 1   
    63    23    58 1   
    64    24    59 1   
    65    24    60 1   
    66    25    61 1   
    67    25    62 1   
    68    26    63 1   
    69    26    64 1   
    70    27    65 1   
    71    27    66 1   
    72    30    67 1   
    73    30    68 1   
    74    31    69 1   
    75    32    70 1   
    76    33    71 1   
    77    34    72 1   
@<TRIPOS>SUBSTRUCTURE
     1 7A1         1 TEMP              0 ****  ****    0 ROOT
