@<TRIPOS>MOLECULE
molecule
   19    18     1     0     0
SMALL
bcc


@<TRIPOS>ATOM
      1 C            0.0000     0.0000     0.0000 c          1 7A2       0.893600
      2 O            1.2080     0.0000     0.0000 o          1 7A2      -0.878800
      3 C1          -0.7530     0.0000     1.3050 c3         1 7A2      -0.191400
      4 C2           0.2410    -0.0010     2.4680 c3         1 7A2       0.103800
      5 C3           1.1080     1.2290     2.3880 c          1 7A2       0.975600
      6 C4          -0.5230    -0.0020     3.7930 c3         1 7A2       0.017100
      7 C5           0.4560    -0.0020     4.9380 c          1 7A2       0.891600
      8 O1          -0.6710     0.0070    -1.1620 o          1 7A2      -0.878800
      9 O2           1.0630    -1.1670     2.3910 oh         1 7A2      -0.558800
     10 O3           0.5490     2.4490     2.4410 o          1 7A2      -0.869800
     11 O4           2.3060     1.1180     2.2770 o          1 7A2      -0.869800
     12 O5          -1.3450    -1.1680     3.8690 oh         1 7A2      -0.632800
     13 O6           1.2660     1.0510     5.1290 o          1 7A2      -0.872300
     14 O7           0.5130    -0.9510     5.6840 o          1 7A2      -0.872300
     15 H2          -1.3760    -0.8840     1.3620 hc         1 7A2       0.015200
     16 H3          -1.3760     0.8850     1.3630 hc         1 7A2       0.015200
     17 H           -1.1450     0.8830     3.8510 h1         1 7A2       0.028700
     18 H4           0.5170    -1.9290     2.2860 ho         1 7A2       0.342000
     19 H6          -2.0670    -1.0070     4.4540 ho         1 7A2       0.342000
@<TRIPOS>BOND
     1     2     1 1   
     2     8     1 1   
     3    14     7 1   
     4     1     3 1   
     5     3     4 1   
     6     7    13 1   
     7     7     6 1   
     8     9     4 1   
     9     4     6 1   
    10     4     5 1   
    11     6    12 1   
    12     5    11 1   
    13     5    10 1   
    14     3    15 1   
    15     3    16 1   
    16     6    17 1   
    17     9    18 1   
    18    12    19 1   
@<TRIPOS>SUBSTRUCTURE
     1 7A2         1 TEMP              0 ****  ****    0 ROOT
