@<TRIPOS>MOLECULE
molecule
   19    18     1     0     0
SMALL
bcc


@<TRIPOS>ATOM
      1 O2           1.4290     0.0000     0.0000 oh         1 7A3      -0.531800
      2 O3          -1.8220    -1.4410    -0.8320 o          1 7A3      -0.862300
      3 C1          -0.5100     0.0000     1.4430 c3         1 7A3      -0.187400
      4 O1           0.6870    -2.0260     1.5660 o          1 7A3      -0.878800
      5 C2           0.0000     0.0000     0.0000 c3         1 7A3       0.093800
      6 C5          -0.1110     1.1890    -2.1720 c          1 7A3       0.897600
      7 C3          -0.5030    -1.2300    -0.7100 c          1 7A3       0.959600
      8 C4          -0.5100     1.2500    -0.7200 c3         1 7A3       0.033100
      9 C           -0.0070    -1.2310     2.1530 c          1 7A3       0.893600
     10 O           -0.3310    -1.4440     3.4380 o          1 7A3      -0.878800
     11 O4           0.2820    -2.0250    -1.1700 o          1 7A3      -0.862300
     12 O5          -1.9330     1.3110    -0.6190 oh         1 7A3      -0.551800
     13 O6          -0.9600     1.1070    -3.0290 o          1 7A3      -0.876300
     14 O7           1.1850     1.2280    -2.5150 o          1 7A3      -0.876300
     15 H3           1.7440     0.7330     0.5030 ho         1 7A3       0.323000
     16 H1          -0.1490     0.8840     1.9540 hc         1 7A3       0.014200
     17 H2          -1.5930     0.0000     1.4430 hc         1 7A3       0.014200
     18 H5          -0.0780     2.1310    -0.2630 h1         1 7A3      -0.042300
     19 H6          -2.2150     2.2080    -0.6840 ho         1 7A3       0.320000
@<TRIPOS>BOND
     1     4     9 1   
     2    13     6 1   
     3    10     9 1   
     4     9     3 1   
     5     3     5 1   
     6     6    14 1   
     7     6     8 1   
     8     1     5 1   
     9     5     8 1   
    10     5     7 1   
    11     8    12 1   
    12     7    11 1   
    13     7     2 1   
    14     1    15 1   
    15     3    16 1   
    16     3    17 1   
    17     8    18 1   
    18    12    19 1   
@<TRIPOS>SUBSTRUCTURE
     1 7A3         1 TEMP              0 ****  ****    0 ROOT
