@<TRIPOS>MOLECULE
7A5
   53    55     1     0     0
SMALL
bcc


@<TRIPOS>ATOM
      1 C1           0.0000     0.0000     0.0000 cc         1 7A5      -0.433200
      2 C2           1.3880     0.0000     0.0000 cd         1 7A5       0.326600
      3 N3           2.0450     0.0000     1.1630 nd         1 7A5      -0.680300
      4 C4          -0.6680     0.0360     1.2250 c          1 7A5       0.637700
      5 O5          -1.8880     0.0180     1.2640 o          1 7A5      -0.703500
      6 N6           0.0520     0.0900     2.3720 n          1 7A5       0.032700
      7 C7           1.4080     0.0140     2.3200 cc         1 7A5       0.452800
      8 N8           2.1490    -0.0930     3.4660 nh         1 7A5      -0.381600
      9 C9           1.5750     0.1890     4.7750 c3         1 7A5       0.087500
     10 C10          0.1140    -0.2270     4.8310 c3         1 7A5      -0.054400
     11 C11         -0.6650     0.2680     3.6300 c3         1 7A5       0.025000
     12 N12          2.0830    -0.0020    -1.1920 nh         1 7A5      -0.379400
     13 C13          2.3580    -0.5800     5.8420 c3         1 7A5       0.569900
     14 F14          3.6610    -0.0790     5.9160 f          1 7A5      -0.199633
     15 F15          1.7270    -0.4280     7.0810 f          1 7A5      -0.199633
     16 F16          2.3980    -1.9370     5.5030 f          1 7A5      -0.199633
     17 C17          1.6360     0.8150    -2.3310 c3         1 7A5       0.144800
     18 C18          2.8290     1.6290    -2.8410 c3         1 7A5       0.195400
     19 O19          3.9300     0.7490    -3.0850 os         1 7A5      -0.404600
     20 C20          4.4080     0.0740    -1.9190 c3         1 7A5       0.191400
     21 C21          3.2970    -0.8160    -1.3600 c3         1 7A5       0.131500
     22 C22          3.7280    -1.3850    -0.0060 c3         1 7A5      -0.033100
     23 C23          3.5520    -0.5020     3.3740 c3         1 7A5       0.020800
     24 C24          4.4310     0.7230     3.3380 c          1 7A5       0.601100
     25 O25          3.9350     1.8230     3.3840 o          1 7A5      -0.545100
     26 C26          5.9270     0.5730     3.2440 c3         1 7A5      -0.140700
     27 C27          6.5270     1.8320     2.6140 c3         1 7A5       0.014400
     28 C28          6.5090     0.3780     4.6450 c3         1 7A5       0.014400
     29 H1          -0.5530     0.0000    -0.9320 ha         1 7A5       0.154000
     30 H111        -0.8750     1.3220     3.7630 h1         1 7A5       0.052200
     31 H112        -1.6010    -0.2750     3.5760 h1         1 7A5       0.052200
     32 H9           1.6480     1.2520     4.9710 h1         1 7A5       0.076700
     33 H231         3.8100    -1.1050     4.2360 h1         1 7A5       0.075700
     34 H232         3.7010    -1.0810     2.4710 h1         1 7A5       0.075700
     35 H101        -0.3320     0.1810     5.7300 hc         1 7A5       0.047200
     36 H102         0.0580    -1.3080     4.8640 hc         1 7A5       0.047200
     37 H171         0.8480     1.4860    -2.0110 h1         1 7A5       0.030700
     38 H172         1.2730     0.1680    -3.1210 h1         1 7A5       0.030700
     39 H21          3.0980    -1.6250    -2.0530 h1         1 7A5       0.033700
     40 H181         3.1110     2.3610    -2.0950 h1         1 7A5       0.015700
     41 H182         2.5570     2.1290    -3.7630 h1         1 7A5       0.015700
     42 H201         4.6950     0.8040    -1.1720 h1         1 7A5       0.016700
     43 H202         5.2620    -0.5380    -2.1810 h1         1 7A5       0.016700
     44 H221         4.5790    -2.0410    -0.1450 hc         1 7A5       0.023367
     45 H222         2.9070    -1.9440     0.4270 hc         1 7A5       0.023367
     46 H223         4.0010    -0.5720     0.6560 hc         1 7A5       0.023367
     47 H26          6.1670    -0.2870     2.6310 hc         1 7A5       0.036700
     48 H271         6.0000     2.0620     1.6960 hc         1 7A5       0.010200
     49 H272         6.4300     2.6620     3.3030 hc         1 7A5       0.010200
     50 H273         7.5750     1.6630     2.3970 hc         1 7A5       0.010200
     51 H281         6.0980     1.1240     5.3140 hc         1 7A5       0.010200
     52 H282         7.5870     0.4830     4.6060 hc         1 7A5       0.010200
     53 H283         6.2560    -0.6110     5.0070 hc         1 7A5       0.010200
@<TRIPOS>BOND
     1     1     2 2   
     2     1     4 1   
     3     1    29 1   
     4     2     3 1   
     5     2    12 1   
     6     3     7 2   
     7     4     5 2   
     8     4     6 1   
     9     6     7 1   
    10     6    11 1   
    11     7     8 1   
    12     8     9 1   
    13     8    23 1   
    14     9    10 1   
    15     9    13 1   
    16     9    32 1   
    17    10    11 1   
    18    10    35 1   
    19    10    36 1   
    20    11    30 1   
    21    11    31 1   
    22    12    17 1   
    23    12    21 1   
    24    13    14 1   
    25    13    15 1   
    26    13    16 1   
    27    17    18 1   
    28    17    37 1   
    29    17    38 1   
    30    18    19 1   
    31    18    40 1   
    32    18    41 1   
    33    19    20 1   
    34    20    21 1   
    35    20    42 1   
    36    20    43 1   
    37    21    22 1   
    38    21    39 1   
    39    22    44 1   
    40    22    45 1   
    41    22    46 1   
    42    23    24 1   
    43    23    33 1   
    44    23    34 1   
    45    24    25 2   
    46    24    26 1   
    47    26    27 1   
    48    26    28 1   
    49    26    47 1   
    50    27    48 1   
    51    27    49 1   
    52    27    50 1   
    53    28    51 1   
    54    28    52 1   
    55    28    53 1   
@<TRIPOS>SUBSTRUCTURE
     1 7A5         1 TEMP              0 ****  ****    0 ROOT
