@<TRIPOS>MOLECULE
7A7
   41    44     1     0     0
SMALL
bcc


@<TRIPOS>ATOM
      1 C4           0.0000     0.0000     0.0000 ca         1 7A7       0.468600
      2 C5           1.4130     0.0000     0.0000 ca         1 7A7      -0.282600
      3 C6           2.0810     0.0000     1.2450 ca         1 7A7       0.544200
      4 N1           1.3470    -0.0000     2.3510 nb         1 7A7      -0.719000
      5 N3          -0.6460    -0.0000     1.1740 nb         1 7A7      -0.676000
      6 CAT          5.4320     0.2550     2.6840 ca         1 7A7       0.106900
      7 CAJ          6.0650     0.1290     3.9070 ca         1 7A7      -0.155000
      8 CAS          5.3750    -0.3900     4.9930 ca         1 7A7       0.162100
      9 OAP          5.9980    -0.5140     6.1970 os         1 7A7      -0.304900
     10 CAB          5.2280    -1.0550     7.2720 c3         1 7A7       0.244700
     11 CAF          4.0520    -0.7830     4.8540 ca         1 7A7      -0.197000
     12 CAG          3.4190    -0.6580     3.6330 ca         1 7A7      -0.068000
     13 CAU          4.1040    -0.1340     2.5460 ca         1 7A7      -0.079400
     14 NAN          3.4600    -0.0010     1.3080 nu         1 7A7      -0.272300
     15 C2           0.0270     0.0000     2.3030 ca         1 7A7       0.690900
     16 CAH         -0.6880     0.0060    -1.2260 ca         1 7A7      -0.161300
     17 CAI         -0.0100     0.0060    -2.3940 ca         1 7A7      -0.011000
     18 CAY          1.4130     0.0010    -2.4300 ca         1 7A7       0.044400
     19 NAM          2.2130     0.0020    -3.4980 nc         1 7A7      -0.370100
     20 CAZ          2.1150    -0.0000    -1.2230 ca         1 7A7       0.018900
     21 SAQ          3.8400    -0.0070    -1.5830 ss         1 7A7      -0.192100
     22 CAW          3.4890     0.0020    -3.3060 cd         1 7A7       0.289900
     23 CAR          4.5060     0.0030    -4.3770 cf         1 7A7       0.584300
     24 NAC          5.7700     0.0030    -4.0730 n2         1 7A7      -0.754100
     25 OAO          4.1230     0.0040    -5.6740 os         1 7A7      -0.376400
     26 CAA          5.1590     0.0050    -6.6580 c3         1 7A7       0.257700
     27 H1           7.0900     0.4590     4.0230 ha         1 7A7       0.134000
     28 H2           5.8380    -1.0990     8.1660 h1         1 7A7      -0.000967
     29 H3           4.3660    -0.4250     7.4530 h1         1 7A7      -0.000967
     30 H4           4.8970    -2.0540     7.0120 h1         1 7A7      -0.000967
     31 H5           3.5160    -1.1900     5.7020 ha         1 7A7       0.125000
     32 H6           2.3850    -0.9630     3.5250 ha         1 7A7       0.168000
     33 H7           3.9990     0.1370     0.4760 hn         1 7A7       0.318800
     34 H8          -0.5260    -0.0000     3.2350 h5         1 7A7      -0.002900
     35 H9          -1.7720     0.0110    -1.2340 ha         1 7A7       0.129000
     36 H10         -0.5630     0.0100    -3.3260 ha         1 7A7       0.118000
     37 H12          6.0540     0.0020    -3.1130 hn         1 7A7       0.341400
     38 H15          5.7730     0.8890    -6.5350 h1         1 7A7       0.002033
     39 H16          4.7180     0.0050    -7.6470 h1         1 7A7       0.002033
     40 H17          5.7730    -0.8800    -6.5360 h1         1 7A7       0.002033
     41 FAD          6.1030     0.7610     1.6260 f          1 7A7      -0.126900
@<TRIPOS>BOND
     1     1     2 ar  
     2     1     5 ar  
     3     1    16 ar  
     4     2     3 ar  
     5     2    20 ar  
     6     3     4 ar  
     7     3    14 1   
     8     4    15 ar  
     9     5    15 ar  
    10     6     7 ar  
    11     6    13 ar  
    12     6    41 1   
    13     7     8 ar  
    14     7    27 1   
    15     8     9 1   
    16     8    11 ar  
    17     9    10 1   
    18    10    28 1   
    19    10    29 1   
    20    10    30 1   
    21    11    12 ar  
    22    11    31 1   
    23    12    13 ar  
    24    12    32 1   
    25    13    14 1   
    26    14    33 1   
    27    15    34 1   
    28    16    17 ar  
    29    16    35 1   
    30    17    18 ar  
    31    17    36 1   
    32    18    19 1   
    33    18    20 ar  
    34    19    22 2   
    35    20    21 1   
    36    21    22 1   
    37    22    23 1   
    38    23    24 2   
    39    23    25 1   
    40    24    37 1   
    41    25    26 1   
    42    26    38 1   
    43    26    39 1   
    44    26    40 1   
@<TRIPOS>SUBSTRUCTURE
     1 7A7         1 TEMP              0 ****  ****    0 ROOT
