@<TRIPOS>MOLECULE
molecule
   41    44     1     0     0
SMALL
bcc


@<TRIPOS>ATOM
      1 C4           0.0000     0.0000     0.0000 ca         1 7A7       0.501600
      2 C5           1.4130     0.0000     0.0000 ca         1 7A7      -0.290600
      3 C6           2.0810     0.0000     1.2450 ca         1 7A7       0.741200
      4 N1           1.3470    -0.0000     2.3510 nb         1 7A7      -0.821000
      5 N3          -0.6460    -0.0000     1.1740 nb         1 7A7      -0.767000
      6 CAT          5.4320     0.2550     2.6840 ca         1 7A7       0.128900
      7 CAJ          6.0650     0.1290     3.9070 ca         1 7A7      -0.181000
      8 CAS          5.3750    -0.3900     4.9930 ca         1 7A7       0.147100
      9 OAP          5.9980    -0.5140     6.1970 os         1 7A7      -0.325900
     10 CAB          5.2280    -1.0550     7.2720 c3         1 7A7       0.128700
     11 CAF          4.0520    -0.7830     4.8540 ca         1 7A7      -0.217000
     12 CAG          3.4190    -0.6580     3.6330 ca         1 7A7      -0.082000
     13 CAU          4.1040    -0.1340     2.5460 ca         1 7A7       0.075600
     14 NAN          3.4600    -0.0010     1.3080 nu         1 7A7      -0.735300
     15 C2           0.0270     0.0000     2.3030 ca         1 7A7       0.727900
     16 CAH         -0.6880     0.0060    -1.2260 ca         1 7A7      -0.188300
     17 CAI         -0.0100     0.0060    -2.3940 ca         1 7A7      -0.037000
     18 CAY          1.4130     0.0010    -2.4300 ca         1 7A7       0.100400
     19 NAM          2.2130     0.0020    -3.4980 nc         1 7A7      -0.530100
     20 CAZ          2.1150    -0.0000    -1.2230 ca         1 7A7      -0.037100
     21 SAQ          3.8400    -0.0070    -1.5830 ss         1 7A7      -0.036100
     22 CAW          3.4890     0.0020    -3.3060 cc         1 7A7       0.378900
     23 CAR          4.5060     0.0030    -4.3770 ce         1 7A7       0.621300
     24 NAC          5.7700     0.0030    -4.0730 n2         1 7A7      -0.885100
     25 OAO          4.1230     0.0040    -5.6740 os         1 7A7      -0.432400
     26 CAA          5.1590     0.0050    -6.6580 c3         1 7A7       0.123700
     27 H1           7.0900     0.4590     4.0230 ha         1 7A7       0.162000
     28 H2           4.8970    -2.0540     7.0120 h1         1 7A7       0.042700
     29 H3           4.3660    -0.4250     7.4530 h1         1 7A7       0.042700
     30 H4           5.8380    -1.0990     8.1660 h1         1 7A7       0.042700
     31 H5           3.5160    -1.1900     5.7020 ha         1 7A7       0.143000
     32 H6           2.3850    -0.9630     3.5250 ha         1 7A7       0.191000
     33 H7           3.9990     0.1370     0.4760 hn         1 7A7       0.466800
     34 H8          -0.5260    -0.0000     3.2350 h5         1 7A7       0.060100
     35 H9          -1.7720     0.0110    -1.2340 ha         1 7A7       0.162000
     36 H10         -0.5630     0.0100    -3.3260 ha         1 7A7       0.154000
     37 H12          6.4600     0.0040    -4.7980 hn         1 7A7       0.417400
     38 H15          4.7180     0.0050    -7.6470 h1         1 7A7       0.048033
     39 H16          5.7730     0.8890    -6.5350 h1         1 7A7       0.048033
     40 H17          5.7730    -0.8800    -6.5360 h1         1 7A7       0.048033
     41 FAD          6.1030     0.7610     1.6260 f          1 7A7      -0.138900
@<TRIPOS>BOND
     1    26    25 1
     2    24    23 2
     3    25    23 1
     4    23    22 1
     5    22    19 2
     6    22    21 1
     7    19    18 1
     8    21    20 1
     9    18    20 ar
    10    18    17 ar
    11    20     2 ar
    12    17    16 ar
    13    41     6 1
    14    14     3 1
    15    14    13 1
    16     2     3 ar
    17     2     1 ar
    18    16     1 ar
    19     6    13 ar
    20     6     7 ar
    21     3     4 ar
    22    13    12 ar
    23     1     5 ar
    24     7     8 ar
    25    12    11 ar
    26     4    15 ar
    27     5    15 ar
    28     8    11 ar
    29     8     9 1
    30     9    10 1
    31     7    27 1
    32    10    28 1
    33    10    29 1
    34    10    30 1
    35    11    31 1
    36    12    32 1
    37    14    33 1
    38    15    34 1
    39    16    35 1
    40    17    36 1
    41    24    37 1
    42    26    38 1
    43    26    39 1
    44    26    40 1
@<TRIPOS>SUBSTRUCTURE
     1 7A7         1 TEMP              0 ****  ****    0 ROOT
