@<TRIPOS>MOLECULE
molecule
   27    27     1     0     0
SMALL
bcc


@<TRIPOS>ATOM
      1 C5           0.0000     0.0000     0.0000 c3         1 7A8      -0.038200
      2 C6           1.5020     0.0000     0.0000 c2         1 7A8      -0.175200
      3 C7           2.2280     0.0000     1.0710 c2         1 7A8      -0.126400
      4 C8           1.6720    -0.0060     2.4640 c3         1 7A8      -0.038200
      5 C9           0.2000     0.4110     2.4460 c3         1 7A8      -0.074400
      6 C10         -0.5250    -0.4140     1.3750 c3         1 7A8       0.144500
      7 N12         -1.9690    -0.1580     1.4510 n3         1 7A8      -0.670600
      8 C13          3.7270     0.0060     0.9090 c3         1 7A8      -0.056900
      9 C14         -2.5960    -0.9670     0.3970 c3         1 7A8       0.122100
     10 C15         -2.4300    -0.7050     2.7330 c3         1 7A8       0.122100
     11 H51         -0.3580     0.9950    -0.2350 hc         1 7A8       0.056200
     12 H52         -0.3580    -0.7010    -0.7450 hc         1 7A8       0.056200
     13 H6           2.0090     0.0010    -0.9570 ha         1 7A8       0.120000
     14 H81          1.7550    -1.0040     2.8780 hc         1 7A8       0.048700
     15 H82          2.2330     0.6890     3.0760 hc         1 7A8       0.048700
     16 H91          0.1240     1.4650     2.2060 hc         1 7A8       0.051700
     17 H92         -0.2440     0.2190     3.4150 hc         1 7A8       0.051700
     18 H10         -0.3280    -1.4670     1.5350 h1         1 7A8       0.032700
     19 H131         4.1960    -0.1500     1.8730 hc         1 7A8       0.039700
     20 H132         4.0430     0.9600     0.5040 hc         1 7A8       0.039700
     21 H133         4.0200    -0.7880     0.2320 hc         1 7A8       0.039700
     22 H141        -3.6470    -1.1020     0.6230 h1         1 7A8       0.034367
     23 H142        -2.4930    -0.4630    -0.5550 h1         1 7A8       0.034367
     24 H143        -2.1110    -1.9350     0.3480 h1         1 7A8       0.034367
     25 H151        -1.9410    -1.6540     2.9180 h1         1 7A8       0.034367
     26 H152        -2.1870    -0.0120     3.5290 h1         1 7A8       0.034367
     27 H153        -3.5020    -0.8530     2.6970 h1         1 7A8       0.034367
@<TRIPOS>BOND
     1     1     2 1
     2     1     6 1
     3     1    11 1
     4     1    12 1
     5     2     3 2
     6     2    13 1
     7     3     4 1
     8     3     8 1
     9     4     5 1
    10     4    14 1
    11     4    15 1
    12     5     6 1
    13     5    16 1
    14     5    17 1
    15     6     7 1
    16     6    18 1
    17     7     9 1
    18     7    10 1
    19     8    19 1
    20     8    20 1
    21     8    21 1
    22     9    22 1
    23     9    23 1
    24     9    24 1
    25    10    25 1
    26    10    26 1
    27    10    27 1
@<TRIPOS>SUBSTRUCTURE
     1 7A8         1 TEMP              0 ****  ****    0 ROOT
