@<TRIPOS>MOLECULE
molecule
   46    50     1     0     0
SMALL
bcc


@<TRIPOS>ATOM
      1 C22          0.0000     0.0000     0.0000 c3         1 7A9       0.160800
      2 C13          1.3960     3.1270     6.7020 ca         1 7A9      -0.069000
      3 C21          1.5310     0.0000     0.0000 c3         1 7A9      -0.121400
      4 C14          5.0160     1.0710     7.7300 c3         1 7A9      -0.032100
      5 C11          3.0910     2.5270     8.2770 ca         1 7A9      -0.108000
      6 C16         -0.0380     1.2400     2.0930 c3         1 7A9       0.153800
      7 C20          2.0260     0.0000     1.4520 c3         1 7A9      -0.080700
      8 C19          1.4760    -1.2470     2.1560 c3         1 7A9      -0.121400
      9 C06          1.4750     2.2400     4.3760 c          1 7A9       0.719100
     10 N05          1.9290     1.2780     3.5500 n          1 7A9      -0.484800
     11 C15          1.4910     1.2550     2.1520 c3         1 7A9       0.096700
     12 C18         -0.0540    -1.2120     2.0970 c3         1 7A9       0.160800
     13 N17         -0.4870    -0.0010     1.3860 n3         1 7A9      -0.711600
     14 C04          2.8530     0.2560     4.0370 c3         1 7A9       0.104000
     15 C08          2.0390     2.3550     5.7380 ca         1 7A9      -0.142600
     16 C12          1.9310     3.2100     7.9710 ca         1 7A9      -0.141000
     17 C10          3.7470     1.7610     7.3190 ca         1 7A9      -0.082300
     18 C01          5.7200     0.3750     6.5810 c3         1 7A9      -0.077400
     19 C09          3.2210     1.6740     6.0510 ca         1 7A9      -0.043300
     20 C03          3.8950     0.8700     4.9700 c3         1 7A9      -0.045400
     21 C02          4.7150    -0.2490     5.6170 c3         1 7A9      -0.073400
     22 H1          -0.3620    -0.8840    -0.5110 h1         1 7A9       0.055200
     23 H2          -0.3620     0.8850    -0.5090 h1         1 7A9       0.055200
     24 H4           1.8950     0.8850    -0.5080 hc         1 7A9       0.048700
     25 H5           1.8950    -0.8850    -0.5080 hc         1 7A9       0.048700
     26 H6           5.6880     1.8070     8.1530 hc         1 7A9       0.051700
     27 H7           4.7780     0.3340     8.4870 hc         1 7A9       0.051700
     28 H8           3.5030     2.5990     9.2770 ha         1 7A9       0.130000
     29 H9          -0.3890     2.1110     1.5530 h1         1 7A9       0.077700
     30 H10         -0.4410     1.2500     3.0990 h1         1 7A9       0.077700
     31 H11          3.1090    -0.0070     1.4760 hc         1 7A9       0.056700
     32 H12          1.8000    -1.2530     3.1890 hc         1 7A9       0.048700
     33 H13          1.8390    -2.1370     1.6560 hc         1 7A9       0.048700
     34 H14          1.8620     2.1370     1.6440 h1         1 7A9       0.061700
     35 H15         -0.4540    -1.2040     3.1040 h1         1 7A9       0.055200
     36 H16         -0.4150    -2.0880     1.5720 h1         1 7A9       0.055200
     37 H18          3.3570    -0.2000     3.1930 h1         1 7A9       0.055700
     38 H19          2.2950    -0.5000     4.5770 h1         1 7A9       0.055700
     39 H20          1.4400     3.8090     8.7280 ha         1 7A9       0.135000
     40 H21          6.3610    -0.4030     6.9770 hc         1 7A9       0.045700
     41 H22          6.3220     1.0990     6.0440 hc         1 7A9       0.045700
     42 H23          4.5530     1.5140     4.4000 hc         1 7A9       0.072700
     43 H24          4.0550    -0.9130     6.1620 hc         1 7A9       0.047200
     44 H25          5.2430    -0.8020     4.8500 hc         1 7A9       0.047200
     45 H3           0.4850     3.6610     6.4570 ha         1 7A9       0.156000
     46 O07          0.6090     3.0080     4.0050 o          1 7A9      -0.646500
@<TRIPOS>BOND
     1     1    13 1   
     2     1     3 1   
     3    13    12 1   
     4    13     6 1   
     5    12     8 1   
     6     6    11 1   
     7     3     7 1   
     8     8     7 1   
     9    11     7 1   
    10    11    10 1   
    11    14    10 1   
    12    14    20 1   
    13    10     9 1   
    14    46     9 2   
    15     9    15 1   
    16    21    20 1   
    17    21    18 1   
    18    20    19 1   
    19    15    19 ar  
    20    15     2 ar  
    21    19    17 ar  
    22    18     4 1   
    23     2    16 ar  
    24    17     4 1   
    25    17     5 ar  
    26    16     5 ar  
    27     1    22 1   
    28     1    23 1   
    29     2    45 1   
    30     3    24 1   
    31     3    25 1   
    32     4    26 1   
    33     4    27 1   
    34     5    28 1   
    35     6    29 1   
    36     6    30 1   
    37     7    31 1   
    38     8    32 1   
    39     8    33 1   
    40    11    34 1   
    41    12    35 1   
    42    12    36 1   
    43    14    37 1   
    44    14    38 1   
    45    16    39 1   
    46    18    40 1   
    47    18    41 1   
    48    20    42 1   
    49    21    43 1   
    50    21    44 1   
@<TRIPOS>SUBSTRUCTURE
     1 7A9         1 TEMP              0 ****  ****    0 ROOT
