@<TRIPOS>MOLECULE
7A9
   46    50     1     0     0
SMALL
bcc


@<TRIPOS>ATOM
      1 C22          0.0000     0.0000     0.0000 c3         1 7A9       0.161800
      2 C13          1.3960     3.1270     6.7020 ca         1 7A9      -0.036000
      3 C21          1.5310     0.0000     0.0000 c3         1 7A9      -0.073900
      4 C14          5.0160     1.0710     7.7300 c3         1 7A9       0.037900
      5 C11          3.0910     2.5270     8.2770 ca         1 7A9      -0.083000
      6 C16         -0.0380     1.2400     2.0930 c3         1 7A9       0.140800
      7 C20          2.0260     0.0000     1.4520 c3         1 7A9      -0.055700
      8 C19          1.4760    -1.2470     2.1560 c3         1 7A9      -0.073900
      9 C06          1.4750     2.2400     4.3760 c          1 7A9       0.654100
     10 N05          1.9290     1.2780     3.5500 n          1 7A9      -0.144800
     11 C15          1.4910     1.2550     2.1520 c3         1 7A9       0.018700
     12 C18         -0.0540    -1.2120     2.0970 c3         1 7A9       0.161800
     13 N17         -0.4870    -0.0010     1.3860 n3         1 7A9      -0.537600
     14 C04          2.8530     0.2560     4.0370 c3         1 7A9       0.026000
     15 C08          2.0390     2.3550     5.7380 ca         1 7A9      -0.151600
     16 C12          1.9310     3.2100     7.9710 ca         1 7A9      -0.115000
     17 C10          3.7470     1.7610     7.3190 ca         1 7A9      -0.085300
     18 C01          5.7200     0.3750     6.5810 c3         1 7A9      -0.023400
     19 C09          3.2210     1.6740     6.0510 ca         1 7A9      -0.050300
     20 C03          3.8950     0.8700     4.9700 c3         1 7A9      -0.005400
     21 C02          4.7150    -0.2490     5.6170 c3         1 7A9      -0.018400
     22 H1          -0.3620    -0.8840    -0.5110 h1         1 7A9       0.022700
     23 H2          -0.3620     0.8850    -0.5090 h1         1 7A9       0.022700
     24 H4           1.8950     0.8850    -0.5080 hc         1 7A9       0.026700
     25 H5           1.8950    -0.8850    -0.5080 hc         1 7A9       0.026700
     26 H6           5.6880     1.8070     8.1530 hc         1 7A9       0.020700
     27 H7           4.7780     0.3340     8.4870 hc         1 7A9       0.020700
     28 H8           3.5030     2.5990     9.2770 ha         1 7A9       0.104000
     29 H9          -0.3890     2.1110     1.5530 h1         1 7A9       0.047200
     30 H10         -0.4410     1.2500     3.0990 h1         1 7A9       0.047200
     31 H11          3.1090    -0.0070     1.4760 hc         1 7A9       0.036700
     32 H12          1.8000    -1.2530     3.1890 hc         1 7A9       0.026700
     33 H13          1.8390    -2.1370     1.6560 hc         1 7A9       0.026700
     34 H14          1.8620     2.1370     1.6440 h1         1 7A9       0.038700
     35 H15         -0.4540    -1.2040     3.1040 h1         1 7A9       0.022700
     36 H16         -0.4150    -2.0880     1.5720 h1         1 7A9       0.022700
     37 H18          3.3570    -0.2000     3.1930 h1         1 7A9       0.038200
     38 H19          2.2950    -0.5000     4.5770 h1         1 7A9       0.038200
     39 H20          1.4400     3.8090     8.7280 ha         1 7A9       0.107000
     40 H21          6.3610    -0.4030     6.9770 hc         1 7A9       0.016200
     41 H22          6.3220     1.0990     6.0440 hc         1 7A9       0.016200
     42 H23          4.5530     1.5140     4.4000 hc         1 7A9       0.043700
     43 H24          4.0550    -0.9130     6.1620 hc         1 7A9       0.019200
     44 H25          5.2430    -0.8020     4.8500 hc         1 7A9       0.019200
     45 H3           0.4850     3.6610     6.4570 ha         1 7A9       0.126000
     46 O07          0.6090     3.0080     4.0050 o          1 7A9      -0.684500
@<TRIPOS>BOND
     1     1     3 1   
     2     1    13 1   
     3     1    22 1   
     4     1    23 1   
     5     2    15 ar  
     6     2    16 ar  
     7     2    45 1   
     8     3     7 1   
     9     3    24 1   
    10     3    25 1   
    11     4    17 1   
    12     4    18 1   
    13     4    26 1   
    14     4    27 1   
    15     5    16 ar  
    16     5    17 ar  
    17     5    28 1   
    18     6    11 1   
    19     6    13 1   
    20     6    29 1   
    21     6    30 1   
    22     7     8 1   
    23     7    11 1   
    24     7    31 1   
    25     8    12 1   
    26     8    32 1   
    27     8    33 1   
    28     9    10 1   
    29     9    15 1   
    30     9    46 2   
    31    10    11 1   
    32    10    14 1   
    33    11    34 1   
    34    12    13 1   
    35    12    35 1   
    36    12    36 1   
    37    14    20 1   
    38    14    37 1   
    39    14    38 1   
    40    15    19 ar  
    41    16    39 1   
    42    17    19 ar  
    43    18    21 1   
    44    18    40 1   
    45    18    41 1   
    46    19    20 1   
    47    20    21 1   
    48    20    42 1   
    49    21    43 1   
    50    21    44 1   
@<TRIPOS>SUBSTRUCTURE
     1 7A9         1 TEMP              0 ****  ****    0 ROOT
