@<TRIPOS>MOLECULE
7AA
   37    40     1     0     0
SMALL
bcc


@<TRIPOS>ATOM
      1 C4           0.0000     0.0000     0.0000 ca         1 7AA       0.467600
      2 C5           1.4130     0.0000     0.0000 ca         1 7AA      -0.280600
      3 C6           2.0830     0.0000     1.2430 ca         1 7AA       0.544200
      4 N1           1.3490     0.0000     2.3510 nb         1 7AA      -0.711000
      5 N3          -0.6440     0.0010     1.1750 nb         1 7AA      -0.670000
      6 CAS          5.4530     0.1890     2.6600 ca         1 7AA      -0.070600
      7 CAJ          6.0870     0.0610     3.8820 ca         1 7AA      -0.074000
      8 CAR          5.3810    -0.3870     4.9850 ca         1 7AA      -0.047600
      9 Cl2          6.1780    -0.5450     6.5180 cl         1 7AA      -0.019400
     10 CAF          4.0400    -0.7090     4.8680 ca         1 7AA      -0.069000
     11 CAG          3.4020    -0.5830     3.6490 ca         1 7AA      -0.134000
     12 CAT          4.1060    -0.1290     2.5420 ca         1 7AA      -0.000400
     13 NAN          3.4610    -0.0000     1.3060 nu         1 7AA      -0.284300
     14 C2           0.0280     0.0000     2.3030 ca         1 7AA       0.688900
     15 CAH         -0.6900     0.0060    -1.2250 ca         1 7AA      -0.159300
     16 CAI         -0.0120     0.0060    -2.3950 ca         1 7AA      -0.011000
     17 CAX          1.4110    -0.0010    -2.4310 ca         1 7AA       0.047400
     18 NAM          2.2100     0.0010    -3.4990 nc         1 7AA      -0.369100
     19 CAY          2.1140     0.0000    -1.2240 ca         1 7AA       0.017900
     20 SAP          3.8390    -0.0080    -1.5850 ss         1 7AA      -0.197100
     21 CAV          3.4860     0.0010    -3.3080 cd         1 7AA       0.292900
     22 CAQ          4.5020     0.0010    -4.3790 cf         1 7AA       0.584300
     23 NAB          5.7670     0.0020    -4.0770 n2         1 7AA      -0.753100
     24 OAO          4.1170     0.0000    -5.6770 os         1 7AA      -0.375400
     25 CAA          5.1550     0.0010    -6.6610 c3         1 7AA       0.258700
     26 H1           7.1360     0.3130     3.9760 ha         1 7AA       0.126000
     27 H2           3.4900    -1.0610     5.7320 ha         1 7AA       0.117000
     28 H3           2.3520    -0.8330     3.5590 ha         1 7AA       0.180000
     29 H4           4.0000     0.1020     0.4690 hn         1 7AA       0.320800
     30 H5          -0.5240     0.0010     3.2350 h5         1 7AA      -0.000900
     31 H6          -1.7730     0.0110    -1.2320 ha         1 7AA       0.129000
     32 H7          -0.5650     0.0100    -3.3260 ha         1 7AA       0.119000
     33 H9           6.0520     0.0020    -3.1170 hn         1 7AA       0.339400
     34 H12          4.7140     0.0000    -7.6500 h1         1 7AA       0.002700
     35 H13          5.7670     0.8860    -6.5390 h1         1 7AA       0.002700
     36 H14          5.7690    -0.8830    -6.5380 h1         1 7AA       0.002700
     37 Cl1          6.3390     0.7500     1.2770 cl         1 7AA      -0.015400
@<TRIPOS>BOND
     1     1     2 ar  
     2     1     5 ar  
     3     1    15 ar  
     4     2     3 ar  
     5     2    19 ar  
     6     3     4 ar  
     7     3    13 1   
     8     4    14 ar  
     9     5    14 ar  
    10     6     7 ar  
    11     6    12 ar  
    12     6    37 1   
    13     7     8 ar  
    14     7    26 1   
    15     8     9 1   
    16     8    10 ar  
    17    10    11 ar  
    18    10    27 1   
    19    11    12 ar  
    20    11    28 1   
    21    12    13 1   
    22    13    29 1   
    23    14    30 1   
    24    15    16 ar  
    25    15    31 1   
    26    16    17 ar  
    27    16    32 1   
    28    17    18 1   
    29    17    19 ar  
    30    18    21 2   
    31    19    20 1   
    32    20    21 1   
    33    21    22 1   
    34    22    23 2   
    35    22    24 1   
    36    23    33 1   
    37    24    25 1   
    38    25    34 1   
    39    25    35 1   
    40    25    36 1   
@<TRIPOS>SUBSTRUCTURE
     1 7AA         1 TEMP              0 ****  ****    0 ROOT
