@<TRIPOS>MOLECULE
molecule
   37    40     1     0     0
SMALL
bcc


@<TRIPOS>ATOM
      1 C4           0.0000     0.0000     0.0000 ca         1 7AA       0.501600
      2 C5           1.4130     0.0000     0.0000 ca         1 7AA      -0.287600
      3 C6           2.0830     0.0000     1.2430 ca         1 7AA       0.739200
      4 N1           1.3490     0.0000     2.3510 nb         1 7AA      -0.819000
      5 N3          -0.6440     0.0010     1.1750 nb         1 7AA      -0.762000
      6 CAS          5.4530     0.1890     2.6600 ca         1 7AA      -0.012600
      7 CAJ          6.0870     0.0610     3.8820 ca         1 7AA      -0.095000
      8 CAR          5.3810    -0.3870     4.9850 ca         1 7AA       0.011400
      9 Cl2          6.1780    -0.5450     6.5180 cl         1 7AA      -0.101400
     10 CAF          4.0400    -0.7090     4.8680 ca         1 7AA      -0.100000
     11 CAG          3.4020    -0.5830     3.6490 ca         1 7AA      -0.137000
     12 CAT          4.1060    -0.1290     2.5420 ca         1 7AA       0.160600
     13 NAN          3.4610    -0.0000     1.3060 nu         1 7AA      -0.737300
     14 C2           0.0280     0.0000     2.3030 ca         1 7AA       0.726900
     15 CAH         -0.6900     0.0060    -1.2250 ca         1 7AA      -0.186300
     16 CAI         -0.0120     0.0060    -2.3950 ca         1 7AA      -0.036000
     17 CAX          1.4110    -0.0010    -2.4310 ca         1 7AA       0.103400
     18 NAM          2.2100     0.0010    -3.4990 nc         1 7AA      -0.529100
     19 CAY          2.1140     0.0000    -1.2240 ca         1 7AA      -0.039100
     20 SAP          3.8390    -0.0080    -1.5850 ss         1 7AA      -0.038100
     21 CAV          3.4860     0.0010    -3.3080 cc         1 7AA       0.381900
     22 CAQ          4.5020     0.0010    -4.3790 ce         1 7AA       0.620300
     23 NAB          5.7670     0.0020    -4.0770 n2         1 7AA      -0.885100
     24 OAO          4.1170     0.0000    -5.6770 os         1 7AA      -0.432400
     25 CAA          5.1550     0.0010    -6.6610 c3         1 7AA       0.122700
     26 H1           7.1360     0.3130     3.9760 ha         1 7AA       0.159000
     27 H2           3.4900    -1.0610     5.7320 ha         1 7AA       0.151000
     28 H3           2.3520    -0.8330     3.5590 ha         1 7AA       0.204000
     29 H4           4.0000     0.1020     0.4690 hn         1 7AA       0.469800
     30 H5          -0.5240     0.0010     3.2350 h5         1 7AA       0.063100
     31 H6          -1.7730     0.0110    -1.2320 ha         1 7AA       0.163000
     32 H7          -0.5650     0.0100    -3.3260 ha         1 7AA       0.155000
     33 H9           6.4560     0.0020    -4.8030 hn         1 7AA       0.418400
     34 H12          4.7140     0.0010    -7.6500 h1         1 7AA       0.048700
     35 H13          5.7670     0.8860    -6.5380 h1         1 7AA       0.048700
     36 H14          5.7690    -0.8830    -6.5380 h1         1 7AA       0.048700
     37 Cl1          6.3390     0.7500     1.2770 cl         1 7AA      -0.097400
@<TRIPOS>BOND
     1    25    24 1   
     2    23    22 2   
     3    24    22 1   
     4    22    21 1   
     5    21    18 2   
     6    21    20 1   
     7    18    17 1   
     8    20    19 1   
     9    17    19 ar  
    10    17    16 ar  
    11    19     2 ar  
    12    11    10 ar  
    13    11    12 ar  
    14    10     8 ar  
    15    13    12 1   
    16    13     3 1   
    17    16    15 ar  
    18    12     6 ar  
    19     8     9 1   
    20     8     7 ar  
    21     6     7 ar  
    22     6    37 1   
    23     2     3 ar  
    24     2     1 ar  
    25     3     4 ar  
    26    15     1 ar  
    27     1     5 ar  
    28     4    14 ar  
    29     5    14 ar  
    30     7    26 1   
    31    10    27 1   
    32    11    28 1   
    33    13    29 1   
    34    14    30 1   
    35    15    31 1   
    36    16    32 1   
    37    23    33 1   
    38    25    34 1   
    39    25    35 1   
    40    25    36 1   
@<TRIPOS>SUBSTRUCTURE
     1 7AA         1 TEMP              0 ****  ****    0 ROOT
