@<TRIPOS>MOLECULE
molecule
   50    51     1     0     0
SMALL
bcc


@<TRIPOS>ATOM
      1 C            0.0000     0.0000     0.0000 c3         1 7AB      -0.034200
      2 C1           1.6670    -1.0490    -5.8040 c3         1 7AB      -0.014800
      3 C2           0.5350    -1.0760    -6.8340 c3         1 7AB      -0.068400
      4 C3           0.3280     0.3460    -7.3690 c3         1 7AB      -0.081400
      5 C4          -0.2390     1.2110    -6.2410 c3         1 7AB      -0.036200
      6 C5           0.5870     1.0470    -4.9980 c2         1 7AB      -0.103400
      7 C6           1.4270     0.0440    -4.8030 ce         1 7AB      -0.102200
      8 C7           2.1430    -0.0000    -3.5810 ce         1 7AB      -0.095000
      9 C8           1.4700     0.0000    -2.4000 cf         1 7AB      -0.154000
     10 C9           2.1800    -0.0000    -1.1870 cf         1 7AB      -0.052200
     11 C10          1.5050     0.0000     0.0000 ce         1 7AB      -0.113200
     12 C11          2.2180     0.0000     1.2020 ce         1 7AB      -0.077000
     13 C12          1.5600    -0.1140     2.4040 cf         1 7AB      -0.161000
     14 C13          0.2050    -0.4420     2.4440 cf         1 7AB       0.004800
     15 C14         -0.4630    -0.4370     3.6510 ce         1 7AB      -0.295200
     16 C15         -1.8220    -0.7640     3.6990 c          1 7AB       0.561100
     17 C17          1.7230    -2.3950    -5.0800 c3         1 7AB      -0.079600
     18 C18          0.4520     2.0830    -3.9120 c3         1 7AB      -0.059900
     19 C19          3.6880    -0.0010    -1.1950 c3         1 7AB      -0.063900
     20 C20         -0.5370    -0.7990     1.1840 c3         1 7AB      -0.056200
     21 H1          -0.3560     1.0210     0.0690 hc         1 7AB       0.056700
     22 H2           0.8040    -1.7350    -7.6510 hc         1 7AB       0.045700
     23 H3          -0.3760    -1.4240    -6.3630 hc         1 7AB       0.045700
     24 H4           1.2760     0.7530    -7.6970 hc         1 7AB       0.045200
     25 H5          -0.3710     0.3250    -8.1960 hc         1 7AB       0.045200
     26 H6          -1.2580     0.9080    -6.0360 hc         1 7AB       0.051200
     27 H8           3.2260    -0.0010    -3.5870 ha         1 7AB       0.136000
     28 H9           0.3880     0.0340    -2.3930 ha         1 7AB       0.141000
     29 H11          3.2970     0.0940     1.1870 ha         1 7AB       0.135000
     30 H12          2.1010     0.0490     3.3290 ha         1 7AB       0.138000
     31 H13          0.0650    -0.1800     4.5610 ha         1 7AB       0.152000
     32 H15         -2.3420    -1.0550     2.7950 h4         1 7AB      -0.014800
     33 O1          -2.4100    -0.7590     4.7630 o          1 7AB      -0.539100
     34 H18          3.1490     0.2650    -6.6390 hc         1 7AB       0.036700
     35 H19          2.9780    -1.2750    -7.4930 hc         1 7AB       0.036700
     36 H20          3.8060    -1.2170    -5.9310 hc         1 7AB       0.036700
     37 H21          2.6020    -2.4300    -4.4500 hc         1 7AB       0.036700
     38 H22          1.7690    -3.1950    -5.8090 hc         1 7AB       0.036700
     39 H23          0.8360    -2.5140    -4.4700 hc         1 7AB       0.036700
     40 H24         -0.2510     1.7340    -3.1660 hc         1 7AB       0.043367
     41 H25          0.0920     3.0100    -4.3410 hc         1 7AB       0.043367
     42 H26          1.4170     2.2490    -3.4500 hc         1 7AB       0.043367
     43 H27          4.0430     0.3120    -2.1700 hc         1 7AB       0.048700
     44 H28          4.0490    -1.0000    -0.9830 hc         1 7AB       0.048700
     45 H29          4.0530     0.6840    -0.4400 hc         1 7AB       0.048700
     46 H30         -0.4120    -1.8570     0.9860 hc         1 7AB       0.060700
     47 H16         -0.3560    -0.4460    -0.9210 hc         1 7AB       0.056700
     48 H17         -0.2230     2.2510    -6.5460 hc         1 7AB       0.051200
     49 H7          -1.5890    -0.5770     1.3150 hc         1 7AB       0.060700
     50 C16          2.9970    -0.8010    -6.5190 c3         1 7AB      -0.079600
@<TRIPOS>BOND
     1    17     2 1
     2     5     4 1
     3     5     6 1
     4     4     3 1
     5    18     6 1
     6     6     7 2
     7     3     2 1
     8     2     7 1
     9     2    50 1
    10     7     8 1
    11     8     9 2
    12     9    10 1
    13     1    20 1
    14     1    11 1
    15    10    11 2
    16    10    19 1
    17    20    14 1
    18    11    12 1
    19    14    13 1
    20    14    15 2
    21    12    13 2
    22    16    15 1
    23     1    21 1
    24     3    22 1
    25     3    23 1
    26     4    24 1
    27     4    25 1
    28     5    26 1
    29     8    27 1
    30     9    28 1
    31    12    29 1
    32    13    30 1
    33    15    31 1
    34    16    32 1
    35    16    33 2
    36    50    34 1
    37    50    35 1
    38    50    36 1
    39    17    37 1
    40    17    38 1
    41    17    39 1
    42    18    40 1
    43    18    41 1
    44    18    42 1
    45    19    43 1
    46    19    44 1
    47    19    45 1
    48    20    46 1
    49     1    47 1
    50     5    48 1
    51    20    49 1
@<TRIPOS>SUBSTRUCTURE
     1 7AB         1 TEMP              0 ****  ****    0 ROOT
