@<TRIPOS>MOLECULE
molecule
   35    37     1     0     0
SMALL
bcc


@<TRIPOS>ATOM
      1 C5           0.0000     0.0000     0.0000 ca         1 7AC       0.091400
      2 C6           1.3940     0.0000     0.0000 ca         1 7AC       0.024000
      3 C7           2.0860     0.0000     1.2050 ca         1 7AC      -0.008000
      4 C8           3.5180     0.0000     1.2090 cg         1 7AC       0.216800
      5 C10          1.3780    -0.0010     2.4270 cp         1 7AC       0.064000
      6 C13          3.1520     1.1980     5.5150 ca         1 7AC      -0.122000
      7 C15          3.1540    -1.2000     5.5160 ca         1 7AC      -0.107000
      8 C21         -0.7000    -0.0020     1.2220 ca         1 7AC      -0.080200
      9 N2          -2.0400    -0.0020     0.8910 na         1 7AC      -0.145300
     10 C3          -2.1230    -0.0010    -0.4670 cc         1 7AC       0.424700
     11 N4          -0.9310    -0.0050    -0.9890 nd         1 7AC      -0.589100
     12 N9           4.6540    -0.0140     1.1990 n1         1 7AC      -0.298800
     13 C11          2.1160    -0.0010     3.7110 cp         1 7AC      -0.100000
     14 C12          2.4640     1.2050     4.3180 ca         1 7AC      -0.131000
     15 C14          3.4960    -0.0020     6.1120 ca         1 7AC      -0.094000
     16 C16          2.4650    -1.2080     4.3180 ca         1 7AC       0.040400
     17 Cl17         2.0370    -2.7150     3.5700 cl         1 7AC      -0.069400
     18 C18         -0.0090    -0.0020     2.4250 ca         1 7AC      -0.186300
     19 C19         -0.7660    -0.0030     3.7280 c3         1 7AC       0.154100
     20 N20         -1.1760     1.3690     4.0580 nz         1 7AC      -0.815600
     21 H6           1.9360     0.0240    -0.9380 ha         1 7AC       0.183000
     22 H13          3.4360     2.1340     5.9820 ha         1 7AC       0.152000
     23 H15          3.4380    -2.1260     6.0020 ha         1 7AC       0.167000
     24 H1          -2.7940     0.1200     2.8390 h1         1 7AC       0.054033
     25 H1A         -3.6990    -0.9420     1.7520 h1         1 7AC       0.054033
     26 H1B         -3.8350     0.8140     1.5890 h1         1 7AC       0.054033
     27 H3          -2.6960     0.0970    -1.3810 h5         1 7AC       0.142800
     28 H12          2.2000     2.1460     3.8510 ha         1 7AC       0.133000
     29 H14          4.0380    -0.0040     7.0500 ha         1 7AC       0.159000
     30 H19         -1.6510    -0.6210     3.6320 hx         1 7AC       0.118700
     31 H19A        -0.1330    -0.4000     4.5130 hx         1 7AC       0.118700
     32 HN20        -0.7010     1.6690     4.8870 hn         1 7AC       0.453467
     33 HN2A        -0.9410     1.9790     3.3000 hn         1 7AC       0.453467
     34 C1          -3.1650    -0.0020     1.8290 c3         1 7AC       0.032600
     35 H203        -2.1640     1.3940     4.2130 hn         1 7AC       0.453467
@<TRIPOS>BOND
     1     1     2 ar  
     2     1     8 ar  
     3     1    11 1   
     4     2     3 ar  
     5     3     4 1   
     6     3     5 ar  
     7     4    12 3   
     8     5    13 1   
     9     5    18 ar  
    10     6    14 ar  
    11     6    15 ar  
    12     7    15 ar  
    13     7    16 ar  
    14     8     9 1   
    15     8    18 ar  
    16    34     9 1   
    17     9    10 1   
    18    10    11 2   
    19    13    14 ar  
    20    13    16 ar  
    21    16    17 1   
    22    18    19 1   
    23    19    20 1   
    24     2    21 1   
    25     6    22 1   
    26     7    23 1   
    27    34    24 1   
    28    34    25 1   
    29    34    26 1   
    30    10    27 1   
    31    14    28 1   
    32    15    29 1   
    33    19    30 1   
    34    19    31 1   
    35    20    32 1   
    36    20    33 1   
    37    35    20 1   
@<TRIPOS>SUBSTRUCTURE
     1 7AC         1 TEMP              0 ****  ****    0 ROOT
