@<TRIPOS>MOLECULE
molecule
   46    48     1     0     0
SMALL
bcc


@<TRIPOS>ATOM
      1 C1           0.0000     0.0000     0.0000 ca         1 7AD      -0.077000
      2 C2           1.3930     0.0000     0.0000 ca         1 7AD      -0.150000
      3 C3           2.0760     0.0000     1.2080 ca         1 7AD      -0.070000
      4 C4           1.3680     0.0010     2.4120 ca         1 7AD      -0.197900
      5 C5          -2.6950     0.0030     4.8650 ca         1 7AD      -0.184300
      6 C6          -4.0910     0.0030     4.9330 ca         1 7AD      -0.106000
      7 C7          -4.8420     0.0010     3.7640 ca         1 7AD      -0.138000
      8 C8          -4.1940     0.0010     2.5330 ca         1 7AD      -0.096000
      9 C9          -2.1080     0.0010     1.2470 ca         1 7AD       0.240600
     10 N10         -0.6750     0.0020     3.6180 nb         1 7AD      -0.677000
     11 C11         -0.7100     0.0010     1.2130 ca         1 7AD      -0.178300
     12 C12         -0.0250     0.0020     2.4390 ca         1 7AD       0.461600
     13 C13         -2.7900     0.0010     2.4690 ca         1 7AD      -0.172300
     14 C14         -2.0240     0.0020     3.6460 ca         1 7AD       0.443600
     15 N1          -2.8430     0.0000     0.0310 nv         1 7AD      -1.000200
     16 C10          2.1340     0.0010     3.6530 c          1 7AD       0.691700
     17 O1           2.4470     1.0730     4.1970 o          1 7AD      -0.585100
     18 N2           2.4650    -1.2460     4.1900 ns         1 7AD      -0.587900
     19 C15          3.1990    -1.4120     5.4240 c3         1 7AD       0.115000
     20 C16          2.2850    -1.4900     6.6450 c3         1 7AD      -0.108400
     21 C17          1.2740    -2.6330     6.5850 c3         1 7AD       0.165800
     22 N3           0.4430    -2.6970     7.7570 n3         1 7AD      -0.727600
     23 C18         -0.5310    -3.7950     7.6640 c3         1 7AD       0.148100
     24 C19         -0.2680    -1.4280     7.9790 c3         1 7AD       0.148100
     25 H1          -0.5390    -0.0000    -0.9400 ha         1 7AD       0.142000
     26 H2           1.9380    -0.0010    -0.9360 ha         1 7AD       0.139000
     27 H3           3.1600     0.0000     1.2180 ha         1 7AD       0.145000
     28 H5          -2.1220     0.0040     5.7850 ha         1 7AD       0.149000
     29 H6          -4.5870     0.0030     5.8960 ha         1 7AD       0.137000
     30 H7          -5.9240     0.0010     3.8110 ha         1 7AD       0.135000
     31 H8          -4.7750    -0.0000     1.6190 ha         1 7AD       0.140000
     32 HN11        -3.1000     0.8670    -0.3980 hn         1 7AD       0.436800
     33 HN12        -3.1000    -0.8660    -0.3980 hn         1 7AD       0.436800
     34 HN2          2.1790    -2.0670     3.6940 hn         1 7AD       0.310500
     35 H151         3.7810    -2.3240     5.3650 h1         1 7AD       0.051700
     36 H152         3.8740    -0.5730     5.5450 h1         1 7AD       0.051700
     37 H161         2.8990    -1.6170     7.5280 hc         1 7AD       0.058700
     38 H162         1.7450    -0.5550     6.7310 hc         1 7AD       0.058700
     39 H171         1.8100    -3.5690     6.4850 h1         1 7AD       0.028200
     40 H172         0.6420    -2.4960     5.7150 h1         1 7AD       0.028200
     41 H181        -0.0090    -4.7240     7.4690 h1         1 7AD       0.032533
     42 H182        -1.0750    -3.8760     8.5970 h1         1 7AD       0.032533
     43 H183        -1.2250    -3.5950     6.8570 h1         1 7AD       0.032533
     44 H191        -1.1550    -1.6110     8.5740 h1         1 7AD       0.032533
     45 H192         0.3810    -0.7370     8.5030 h1         1 7AD       0.032533
     46 H193        -0.5540    -1.0020     7.0250 h1         1 7AD       0.032533
@<TRIPOS>BOND
     1     1     2 ar  
     2     1    11 ar  
     3     1    25 1   
     4     2     3 ar  
     5     2    26 1   
     6     3     4 ar  
     7     3    27 1   
     8     4    12 ar  
     9     4    16 1   
    10     5     6 ar  
    11     5    14 ar  
    12     5    28 1   
    13     6     7 ar  
    14     6    29 1   
    15     7     8 ar  
    16     7    30 1   
    17     8    13 ar  
    18     8    31 1   
    19     9    11 ar  
    20     9    13 ar  
    21     9    15 1   
    22    10    12 ar  
    23    10    14 ar  
    24    11    12 ar  
    25    13    14 ar  
    26    15    32 1   
    27    15    33 1   
    28    16    17 2   
    29    16    18 1   
    30    18    19 1   
    31    18    34 1   
    32    19    20 1   
    33    19    35 1   
    34    19    36 1   
    35    20    21 1   
    36    20    37 1   
    37    20    38 1   
    38    21    22 1   
    39    21    39 1   
    40    21    40 1   
    41    22    23 1   
    42    22    24 1   
    43    23    41 1   
    44    23    42 1   
    45    23    43 1   
    46    24    44 1   
    47    24    45 1   
    48    24    46 1   
@<TRIPOS>SUBSTRUCTURE
     1 7AD         1 TEMP              0 ****  ****    0 ROOT
