@<TRIPOS>MOLECULE
molecule
   61    65     1     0     0
SMALL
bcc


@<TRIPOS>ATOM
      1 C6           0.0000     0.0000     0.0000 c3         1 7AE       0.194800
      2 C7           1.5330     0.0000     0.0000 c3         1 7AE       0.135400
      3 C13          3.0650     0.0970     3.8360 cc         1 7AE      -0.153400
      4 C15          2.5280     1.7980     5.5700 cc         1 7AE       0.524900
      5 C17          2.3600     2.6810     6.7420 ca         1 7AE      -0.120500
      6 C20          2.0570     4.3440     8.9470 ca         1 7AE      -0.160000
      7 C21          2.8020     3.1870     9.0600 ca         1 7AE      -0.096000
      8 C22          2.9640     2.3540     7.9630 ca         1 7AE       0.035600
      9 C24          4.9160     1.2200     8.7120 c          1 7AE       0.615600
     10 C26          5.7690     0.0190     8.7380 cc         1 7AE       0.338000
     11 C28          7.4370    -1.3480     9.1310 cc         1 7AE      -0.251600
     12 C1          -3.1840     1.4650     0.7820 c3         1 7AE      -0.248300
     13 S2          -1.5900     2.1890     0.3080 s6         1 7AE       1.326900
     14 O3          -1.4350     2.1740    -1.1040 o          1 7AE      -0.626800
     15 O4          -1.3350     3.3680     1.0610 o          1 7AE      -0.626800
     16 N5          -0.4630     1.1050     0.8540 n3         1 7AE      -0.824500
     17 O8           2.0040     0.0000     1.3490 os         1 7AE      -0.425600
     18 C9           1.6300     1.1570     2.1000 c3         1 7AE       0.117800
     19 C11          0.1020     1.2160     2.2080 c3         1 7AE       0.209800
     20 C12          2.2300     1.0780     3.4800 cd         1 7AE       0.361600
     21 S14          3.5340     0.3530     5.5160 ss         1 7AE      -0.213300
     22 N16          1.9630     1.9680     4.4080 nd         1 7AE      -0.679000
     23 C18          1.6040     3.8490     6.6370 ca         1 7AE      -0.098000
     24 C19          1.4550     4.6760     7.7390 ca         1 7AE       0.092600
     25 N23          3.7270     1.1880     8.0770 ns         1 7AE      -0.463100
     26 O25          5.2820     2.2390     9.2650 o          1 7AE      -0.603100
     27 N27          6.9910    -0.0810     9.3440 na         1 7AE      -0.249900
     28 C29          6.4850    -1.9890     8.4090 cd         1 7AE       0.308200
     29 N30          5.4850    -1.1400     8.1860 nd         1 7AE      -0.673000
     30 N32          0.7010     5.8500     7.6340 nh         1 7AE      -0.592000
     31 C33         -0.6650     5.5600     7.1740 c3         1 7AE       0.123800
     32 C34         -1.4340     6.8740     7.0160 c3         1 7AE       0.136900
     33 O35         -1.4200     7.5820     8.2580 os         1 7AE      -0.424600
     34 C36         -0.1050     7.8810     8.7350 c3         1 7AE       0.136900
     35 C37          0.6770     6.5780     8.9120 c3         1 7AE       0.123800
     36 H1          -0.3640     0.1440    -1.0100 h1         1 7AE       0.063200
     37 H2          -0.3640    -0.9410     0.3940 h1         1 7AE       0.063200
     38 H3           1.8930     0.8860    -0.5080 h1         1 7AE       0.058700
     39 H4           1.8930    -0.8860    -0.5080 h1         1 7AE       0.058700
     40 H5           3.3960    -0.7160     3.2020 h4         1 7AE       0.196000
     41 H6           1.9350     4.9930     9.8060 ha         1 7AE       0.143000
     42 H7           3.2690     2.9340    10.0050 ha         1 7AE       0.158000
     43 H8           8.3750    -1.7660     9.4750 h4         1 7AE       0.181000
     44 H9          -3.2950     0.4950     0.3110 h1         1 7AE       0.096700
     45 H10         -3.2230     1.3490     1.8590 h1         1 7AE       0.096700
     46 H11         -3.9870     2.1160     0.4600 h1         1 7AE       0.096700
     47 H12          1.9900     2.0450     1.5940 h1         1 7AE       0.068700
     48 H13         -0.1950     2.1600     2.6500 h1         1 7AE       0.072200
     49 H14         -0.2510     0.3940     2.8190 h1         1 7AE       0.072200
     50 H15          1.1340     4.1090     5.6960 ha         1 7AE       0.166000
     51 H16          3.3660     0.3190     7.7360 hn         1 7AE       0.350500
     52 H17          7.4670     0.6420     9.8470 hn         1 7AE       0.320700
     53 H18          6.5310    -3.0180     8.0720 h4         1 7AE       0.047100
     54 H20         -0.6230     5.0490     6.2200 h1         1 7AE       0.052700
     55 H21         -1.1660     4.9350     7.9030 h1         1 7AE       0.052700
     56 H22         -0.9610     7.4790     6.2510 h1         1 7AE       0.056950
     57 H23         -2.4580     6.6610     6.7340 h1         1 7AE       0.056950
     58 H24          0.4040     8.5130     8.0170 h1         1 7AE       0.056950
     59 H25         -0.1750     8.3920     9.6880 h1         1 7AE       0.056950
     60 H26          0.1950     5.9670     9.6650 h1         1 7AE       0.052700
     61 H27          1.6920     6.8040     9.2170 h1         1 7AE       0.052700
@<TRIPOS>BOND
     1    32    33 1
     2    32    31 1
     3    33    34 1
     4    31    30 1
     5    34    35 1
     6    30    35 1
     7    30    24 1
     8    24     6 ar
     9    24    23 ar
    10     6     7 ar
    11    23     5 ar
    12     7     8 ar
    13     5     8 ar
    14     5     4 1
    15     8    25 1
    16    21     4 1
    17    21     3 1
    18     4    22 2
    19    22    20 1
    20    25     9 1
    21     3    20 2
    22    20    18 1
    23    26     9 2
    24     9    10 1
    25    18    17 1
    26    18    19 1
    27    17     2 1
    28    10    27 1
    29    10    29 2
    30    27    11 1
    31     2     1 1
    32    19    16 1
    33    29    28 1
    34    11    28 2
    35     1    16 1
    36    16    13 1
    37    15    13 2
    38    13    14 2
    39    13    12 1
    40     1    36 1
    41     1    37 1
    42     2    38 1
    43     2    39 1
    44     3    40 1
    45     6    41 1
    46     7    42 1
    47    11    43 1
    48    12    44 1
    49    12    45 1
    50    12    46 1
    51    18    47 1
    52    19    48 1
    53    19    49 1
    54    23    50 1
    55    25    51 1
    56    27    52 1
    57    28    53 1
    58    31    54 1
    59    31    55 1
    60    32    56 1
    61    32    57 1
    62    34    58 1
    63    34    59 1
    64    35    60 1
    65    35    61 1
@<TRIPOS>SUBSTRUCTURE
     1 7AE         1 TEMP              0 ****  ****    0 ROOT
