@<TRIPOS>MOLECULE
7AE
   61    65     1     0     0
SMALL
bcc


@<TRIPOS>ATOM
      1 C6           0.0000     0.0000     0.0000 c3         1 7AE       0.191800
      2 C7           1.5330     0.0000     0.0000 c3         1 7AE       0.207400
      3 C13          3.0650     0.0970     3.8360 cc         1 7AE      -0.083400
      4 C15          2.5280     1.7980     5.5700 cc         1 7AE       0.512900
      5 C17          2.3600     2.6810     6.7420 ca         1 7AE      -0.119500
      6 C20          2.0570     4.3440     8.9470 ca         1 7AE      -0.141000
      7 C21          2.8020     3.1870     9.0600 ca         1 7AE      -0.066000
      8 C22          2.9640     2.3540     7.9630 ca         1 7AE      -0.102400
      9 C24          4.9160     1.2200     8.7120 c          1 7AE       0.527600
     10 C26          5.7690     0.0190     8.7380 cc         1 7AE       0.107000
     11 C28          7.4370    -1.3480     9.1310 cc         1 7AE      -0.440600
     12 C1          -3.1840     1.4650     0.7820 c3         1 7AE       0.013700
     13 S2          -1.5900     2.1890     0.3080 s6         1 7AE       0.965900
     14 O3          -1.4350     2.1740    -1.1040 o          1 7AE      -0.583300
     15 O4          -1.3350     3.3680     1.0610 o          1 7AE      -0.583300
     16 N5          -0.4630     1.1050     0.8540 n3         1 7AE      -0.549500
     17 O8           2.0040     0.0000     1.3490 os         1 7AE      -0.414600
     18 C9           1.6300     1.1570     2.1000 c3         1 7AE       0.147800
     19 C11          0.1020     1.2160     2.2080 c3         1 7AE       0.201800
     20 C12          2.2300     1.0780     3.4800 cd         1 7AE       0.311600
     21 S14          3.5340     0.3530     5.5160 ss         1 7AE      -0.323300
     22 N16          1.9630     1.9680     4.4080 nd         1 7AE      -0.548000
     23 C18          1.6040     3.8490     6.6370 ca         1 7AE      -0.079000
     24 C19          1.4550     4.6760     7.7390 ca         1 7AE       0.011600
     25 N23          3.7270     1.1880     8.0770 ns         1 7AE      -0.034100
     26 O25          5.2820     2.2390     9.2650 o          1 7AE      -0.666100
     27 N27          6.9910    -0.0810     9.3440 na         1 7AE       0.332100
     28 C29          6.4850    -1.9890     8.4090 cd         1 7AE       0.319200
     29 N30          5.4850    -1.1400     8.1860 nd         1 7AE      -0.591000
     30 N32          0.7010     5.8500     7.6340 nh         1 7AE      -0.355000
     31 C33         -0.6650     5.5600     7.1740 c3         1 7AE       0.092800
     32 C34         -1.4340     6.8740     7.0160 c3         1 7AE       0.213400
     33 O35         -1.4200     7.5820     8.2580 os         1 7AE      -0.412600
     34 C36         -0.1050     7.8810     8.7350 c3         1 7AE       0.213400
     35 C37          0.6770     6.5780     8.9120 c3         1 7AE       0.092800
     36 H1          -0.3640     0.1440    -1.0100 h1         1 7AE       0.029200
     37 H2          -0.3640    -0.9410     0.3940 h1         1 7AE       0.029200
     38 H3           1.8930     0.8860    -0.5080 h1         1 7AE       0.016200
     39 H4           1.8930    -0.8860    -0.5080 h1         1 7AE       0.016200
     40 H5           3.3960    -0.7160     3.2020 h4         1 7AE       0.173000
     41 H6           1.9350     4.9930     9.8060 ha         1 7AE       0.124000
     42 H7           3.2690     2.9340    10.0050 ha         1 7AE       0.132000
     43 H8           8.3750    -1.7660     9.4750 h4         1 7AE       0.155000
     44 H9          -3.2950     0.4950     0.3110 h1         1 7AE       0.061367
     45 H10         -3.2230     1.3490     1.8590 h1         1 7AE       0.061367
     46 H11         -3.9870     2.1160     0.4600 h1         1 7AE       0.061367
     47 H12          1.9900     2.0450     1.5940 h1         1 7AE       0.032700
     48 H13         -0.1950     2.1600     2.6500 h1         1 7AE       0.038200
     49 H14         -0.2510     0.3940     2.8190 h1         1 7AE       0.038200
     50 H15          1.1340     4.1090     5.6960 ha         1 7AE       0.137000
     51 H16          3.3660     0.3190     7.7360 hn         1 7AE       0.213500
     52 H17          7.4670     0.6420     9.8470 hn         1 7AE       0.133700
     53 H18          6.5310    -3.0180     8.0720 h4         1 7AE       0.006100
     54 H20         -0.6230     5.0490     6.2200 h1         1 7AE       0.027450
     55 H21         -1.1660     4.9350     7.9030 h1         1 7AE       0.027450
     56 H22         -0.9610     7.4790     6.2510 h1         1 7AE       0.014700
     57 H23         -2.4580     6.6610     6.7340 h1         1 7AE       0.014700
     58 H24          0.4040     8.5130     8.0170 h1         1 7AE       0.014700
     59 H25         -0.1750     8.3920     9.6880 h1         1 7AE       0.014700
     60 H26          0.1950     5.9670     9.6650 h1         1 7AE       0.027450
     61 H27          1.6920     6.8040     9.2170 h1         1 7AE       0.027450
@<TRIPOS>BOND
     1     1     2 1   
     2     1    16 1   
     3     1    36 1   
     4     1    37 1   
     5     2    17 1   
     6     2    38 1   
     7     2    39 1   
     8     3    20 2   
     9     3    21 1   
    10     3    40 1   
    11     4     5 1   
    12     4    21 1   
    13     4    22 2   
    14     5     8 ar  
    15     5    23 ar  
    16     6     7 ar  
    17     6    24 ar  
    18     6    41 1   
    19     7     8 ar  
    20     7    42 1   
    21     8    25 1   
    22     9    10 1   
    23     9    25 1   
    24     9    26 2   
    25    10    27 1   
    26    10    29 2   
    27    11    27 1   
    28    11    28 2   
    29    11    43 1   
    30    12    13 1   
    31    12    44 1   
    32    12    45 1   
    33    12    46 1   
    34    13    14 2   
    35    13    15 2   
    36    13    16 1   
    37    16    19 1   
    38    17    18 1   
    39    18    19 1   
    40    18    20 1   
    41    18    47 1   
    42    19    48 1   
    43    19    49 1   
    44    20    22 1   
    45    23    24 ar  
    46    23    50 1   
    47    24    30 1   
    48    25    51 1   
    49    27    52 1   
    50    28    29 1   
    51    28    53 1   
    52    30    31 1   
    53    30    35 1   
    54    31    32 1   
    55    31    54 1   
    56    31    55 1   
    57    32    33 1   
    58    32    56 1   
    59    32    57 1   
    60    33    34 1   
    61    34    35 1   
    62    34    58 1   
    63    34    59 1   
    64    35    60 1   
    65    35    61 1   
@<TRIPOS>SUBSTRUCTURE
     1 7AE         1 TEMP              0 ****  ****    0 ROOT
