@<TRIPOS>MOLECULE
7AF
   65    65     1     0     0
SMALL
bcc


@<TRIPOS>ATOM
      1 C1           0.0000     0.0000     0.0000 ca         1 7AF      -0.076000
      2 C2           1.3820     0.0000     0.0000 ca         1 7AF      -0.115000
      3 C3           2.0740     0.0000     1.1970 ca         1 7AF      -0.108000
      4 C9          -4.0240    -1.5290     1.1950 c          1 7AF       0.653100
      5 C12         -5.9980    -2.9570     1.1930 c3         1 7AF       0.011800
      6 C20         -8.2630    -5.0880    -4.4760 c3         1 7AF       0.004400
      7 C21         -9.6140    -7.0030    -3.6120 c3         1 7AF       0.004400
      8 C22        -10.0970    -3.0430    -2.0630 c          1 7AF       0.576100
      9 P13         -6.5830    -3.1780    -0.5190 p5         1 7AF       0.470500
     10 C6          -0.6910     0.0010     1.1980 ca         1 7AF      -0.097300
     11 C4           1.3830     0.0010     2.3950 ca         1 7AF      -0.115000
     12 C5           0.0000    -0.0040     2.3950 ca         1 7AF      -0.076000
     13 N16         -8.2530    -3.3910    -0.5200 n7         1 7AF      -0.593300
     14 C17         -8.7450    -3.6830    -1.8720 c3         1 7AF       0.136500
     15 C18         -8.8690    -5.1980    -2.0540 c3         1 7AF      -0.045400
     16 O14         -5.8770    -4.4740    -1.1630 o          1 7AF      -0.631500
     17 N11         -4.5460    -2.7710     1.1930 ns         1 7AF      -0.066900
     18 O10         -4.7600    -0.5610     1.1970 o          1 7AF      -0.669000
     19 O8          -2.6890    -1.3580     1.1960 os         1 7AF      -0.435900
     20 C25        -11.9750    -2.3960    -3.4740 c3         1 7AF       0.046000
     21 C26        -12.3430    -2.4140    -4.9590 c3         1 7AF      -0.063700
     22 C27        -12.4420    -3.8620    -5.4420 c3         1 7AF      -0.018100
     23 C28        -13.6890    -1.7150    -5.1600 c3         1 7AF      -0.045700
     24 C30        -13.5880    -0.2670    -4.6760 c3         1 7AF      -0.002100
     25 C29        -14.0570    -1.7330    -6.6440 c3         1 7AF      -0.002100
     26 H1          -0.5420     0.0000    -0.9380 ha         1 7AF       0.110000
     27 H2           1.9230    -0.0010    -0.9380 ha         1 7AF       0.095500
     28 H3           3.1570     0.0020     1.1960 ha         1 7AF       0.093000
     29 H4          -2.5570     0.5220     0.3140 h1         1 7AF       0.012200
     30 H5          -2.5570     0.5200     2.0830 h1         1 7AF       0.012200
     31 H6          -6.2500    -3.8340     1.7770 h1         1 7AF       0.030700
     32 H7          -6.4730    -2.0850     1.6270 h1         1 7AF       0.030700
     33 H8         -10.2580    -4.9610    -3.6860 hc         1 7AF       0.024700
     34 H9          -8.5310    -5.4410    -5.4640 hc         1 7AF       0.000367
     35 H10         -8.1500    -4.0100    -4.4960 hc         1 7AF       0.000367
     36 H11         -7.3290    -5.5430    -4.1700 hc         1 7AF       0.000367
     37 H12        -10.3980    -7.2930    -2.9230 hc         1 7AF       0.000367
     38 H13         -9.9560    -7.1490    -4.6300 hc         1 7AF       0.000367
     39 H14         -8.7350    -7.6110    -3.4360 hc         1 7AF       0.000367
     40 H15          1.9250    -0.0010     3.3330 ha         1 7AF       0.095500
     41 H16         -0.5420    -0.0030     3.3330 ha         1 7AF       0.110000
     42 H17         -8.8230    -2.8740     0.1200 hn         1 7AF       0.302800
     43 H18         -8.0510    -3.2870    -2.6030 h1         1 7AF       0.058700
     44 H19         -7.9040    -5.6610    -1.8880 hc         1 7AF       0.044200
     45 H20         -9.5850    -5.5900    -1.3420 hc         1 7AF       0.044200
     46 H21        -10.0910    -3.2190    -4.0950 hn         1 7AF       0.197500
     47 H23         -3.9400    -3.5680     1.1980 hn         1 7AF       0.157500
     48 H24        -11.9900    -1.3750    -3.1110 h1         1 7AF       0.024700
     49 H25        -12.6910    -2.9880    -2.9170 h1         1 7AF       0.024700
     50 H26        -11.5790    -1.8960    -5.5260 hc         1 7AF       0.033700
     51 H27        -11.6030    -4.0850    -6.0900 hc         1 7AF       0.010367
     52 H28        -12.4270    -4.5290    -4.5890 hc         1 7AF       0.010367
     53 H29        -13.3670    -3.9970    -5.9890 hc         1 7AF       0.010367
     54 H30        -14.4530    -2.2330    -4.5920 hc         1 7AF       0.026700
     55 H31        -14.3590     0.3270    -5.1520 hc         1 7AF       0.004367
     56 H32        -13.7210    -0.2360    -3.6010 hc         1 7AF       0.004367
     57 H33        -12.6150     0.1320    -4.9320 hc         1 7AF       0.004367
     58 H34        -14.7260    -0.9090    -6.8600 hc         1 7AF       0.004367
     59 H35        -14.5470    -2.6690    -6.8830 hc         1 7AF       0.004367
     60 H36        -13.1580    -1.6340    -7.2400 hc         1 7AF       0.004367
     61 C7          -2.1990     0.0080     1.1980 c3         1 7AF       0.297700
     62 O23        -10.7000    -2.6040    -1.1070 o          1 7AF      -0.667100
     63 C19         -9.3440    -5.5030    -3.4750 c3         1 7AF      -0.090700
     64 O15         -6.2380    -1.9810    -1.3170 o          1 7AF      -0.631500
     65 N24        -10.6330    -2.9570    -3.2960 ns         1 7AF      -0.239900
@<TRIPOS>BOND
     1     1     2 ar  
     2     1    10 ar  
     3     1    26 1   
     4     2     3 ar  
     5     2    27 1   
     6     3    11 ar  
     7     3    28 1   
     8     4    17 1   
     9     4    18 2   
    10     4    19 1   
    11     5     9 1   
    12     5    17 1   
    13     5    31 1   
    14     5    32 1   
    15     6    34 1   
    16     6    35 1   
    17     6    36 1   
    18     6    63 1   
    19     7    37 1   
    20     7    38 1   
    21     7    39 1   
    22     7    63 1   
    23     8    14 1   
    24     8    62 2   
    25     8    65 1   
    26     9    13 1   
    27     9    16 1   
    28     9    64 1   
    29    10    12 ar  
    30    10    61 1   
    31    11    12 ar  
    32    11    40 1   
    33    12    41 1   
    34    13    14 1   
    35    13    42 1   
    36    14    15 1   
    37    14    43 1   
    38    15    44 1   
    39    15    45 1   
    40    15    63 1   
    41    17    47 1   
    42    19    61 1   
    43    20    21 1   
    44    20    48 1   
    45    20    49 1   
    46    20    65 1   
    47    21    22 1   
    48    21    23 1   
    49    21    50 1   
    50    22    51 1   
    51    22    52 1   
    52    22    53 1   
    53    23    24 1   
    54    23    25 1   
    55    23    54 1   
    56    24    55 1   
    57    24    56 1   
    58    24    57 1   
    59    25    58 1   
    60    25    59 1   
    61    25    60 1   
    62    29    61 1   
    63    30    61 1   
    64    33    63 1   
    65    46    65 1   
@<TRIPOS>SUBSTRUCTURE
     1 7AF         1 TEMP              0 ****  ****    0 ROOT
