@<TRIPOS>MOLECULE
molecule
   62    64     1     0     0
SMALL
bcc


@<TRIPOS>ATOM
      1 CAY          0.0000     0.0000     0.0000 ca         1 7AG      -0.122000
      2 CAZ          1.3830     0.0000     0.0000 ca         1 7AG      -0.123000
      3 CBG          2.0740     0.0000     1.1970 ca         1 7AG      -0.122000
      4 CBF          1.3820    -0.0010     2.3940 ca         1 7AG      -0.123000
      5 CBE         -0.0000    -0.0000     2.3950 ca         1 7AG      -0.122000
      6 CAX         -0.6910    -0.0010     1.1970 ca         1 7AG      -0.093300
      7 CAW         -2.1980    -0.0020     1.1970 c3         1 7AG      -0.041400
      8 CAE         -2.7080    -1.2510     1.9180 c3         1 7AG      -0.090100
      9 CAV         -2.7090     1.2470     1.9190 c3         1 7AG       0.061300
     10 NAU         -4.1690     1.3080     1.8150 na         1 7AG       0.133400
     11 CAT         -5.0340     1.4060     2.8500 cc         1 7AG      -0.274600
     12 NAD         -4.8490     1.2840     0.7220 nc         1 7AG      -0.195800
     13 NAC         -6.1070     1.3540     0.9810 nd         1 7AG      -0.354000
     14 CAS         -6.2730     1.4320     2.3070 cd         1 7AG       0.236600
     15 CAR         -7.5810     1.5330     3.0470 c3         1 7AG       0.106700
     16 NAQ         -8.0020     2.9350     3.1070 ns         1 7AG      -0.580900
     17 CAP         -9.1520     3.2670     3.7260 c          1 7AG       0.658100
     18 OAB         -9.8380     2.4060     4.2330 o          1 7AG      -0.607100
     19 CAO         -9.5850     4.7090     3.7870 c3         1 7AG      -0.161400
     20 CAN        -10.9130     4.8120     4.5400 c3         1 7AG      -0.052400
     21 CAM        -11.3540     6.2760     4.6010 c3         1 7AG      -0.157400
     22 CAL        -12.6620     6.3770     5.3420 c          1 7AG       0.664100
     23 OBD        -13.1900     5.3760     5.7780 o          1 7AG      -0.583100
     24 NAK        -13.2440     7.5790     5.5210 ns         1 7AG      -0.486100
     25 CAJ        -14.5050     7.6630     6.1230 ca         1 7AG       0.075600
     26 CAI        -14.8500     6.7800     7.1350 ca         1 7AG      -0.035000
     27 CBC        -15.4080     8.6350     5.7110 ca         1 7AG      -0.096000
     28 CBB        -16.6540     8.7230     6.3020 ca         1 7AG      -0.091000
     29 CBA        -17.0100     7.8450     7.3060 ca         1 7AG      -0.140000
     30 CAH        -16.1080     6.8690     7.7310 ca         1 7AG      -0.196600
     31 CAG        -16.4830     5.9300     8.8100 c          1 7AG       0.505700
     32 OAF        -15.6960     5.0810     9.1790 o          1 7AG      -0.407100
     33 NAA        -17.6990     6.0170     9.3860 nz         1 7AG      -0.679400
     34 H1          -0.5420    -0.0000    -0.9380 ha         1 7AG       0.130500
     35 H2           1.9250     0.0010    -0.9380 ha         1 7AG       0.134500
     36 H3           3.1570    -0.0000     1.1980 ha         1 7AG       0.135000
     37 H4           1.9240    -0.0010     3.3320 ha         1 7AG       0.134500
     38 H5          -0.5420    -0.0010     3.3330 ha         1 7AG       0.130500
     39 H6          -2.5590    -0.0020     0.1750 hc         1 7AG       0.085700
     40 H7          -3.7440    -1.4230     1.6540 hc         1 7AG       0.044033
     41 H8          -2.6260    -1.1090     2.9880 hc         1 7AG       0.044033
     42 H9          -2.1130    -2.1070     1.6210 hc         1 7AG       0.044033
     43 H10         -2.4220     1.2030     2.9620 h1         1 7AG       0.073700
     44 H11         -2.2770     2.1290     1.4630 h1         1 7AG       0.073700
     45 H12         -4.7840     1.4510     3.9040 h4         1 7AG       0.184000
     46 H13         -8.3340     0.9510     2.5300 h1         1 7AG       0.068200
     47 H14         -7.4570     1.1500     4.0530 h1         1 7AG       0.068200
     48 H15         -7.4380     3.6450     2.6850 hn         1 7AG       0.320500
     49 H16         -9.7090     5.0920     2.7820 hc         1 7AG       0.060200
     50 H17         -8.8310     5.2900     4.3040 hc         1 7AG       0.060200
     51 H18        -11.6670     4.2300     4.0230 hc         1 7AG       0.076700
     52 H19        -10.7890     4.4300     5.5460 hc         1 7AG       0.076700
     53 H20        -11.4780     6.6580     3.5950 hc         1 7AG       0.068700
     54 H21        -10.6000     6.8580     5.1180 hc         1 7AG       0.068700
     55 H22        -12.7610     8.4140     5.2530 hn         1 7AG       0.342500
     56 H23        -14.1460     6.0250     7.4610 ha         1 7AG       0.204000
     57 H24        -15.1350     9.3270     4.9230 ha         1 7AG       0.163000
     58 H25        -17.3550     9.4810     5.9740 ha         1 7AG       0.162000
     59 H26        -17.9870     7.9170     7.7670 ha         1 7AG       0.108000
     60 H27        -17.8070     6.9210     9.8020 hn         1 7AG       0.476800
     61 H28        -17.7860     5.3120    10.0910 hn         1 7AG       0.476800
     62 HAA3       -18.4080     5.8830     8.6920 hn         1 7AG       0.476800
@<TRIPOS>BOND
     1     8     7 1
     2     7     6 1
     3     7     9 1
     4     1     6 ar
     5     1     2 ar
     6     6     5 ar
     7     9    10 1
     8     2     3 ar
     9     5     4 ar
    10     3     4 ar
    11    10    11 1
    12    10    12 1
    13    11    14 2
    14    12    13 2
    15    13    14 1
    16    14    15 1
    17    18    17 2
    18    15    16 1
    19    17    16 1
    20    17    19 1
    21    19    20 1
    22    20    21 1
    23    21    22 1
    24    22    23 2
    25    22    24 1
    26    24    25 1
    27    25    26 ar
    28    25    27 ar
    29    26    30 ar
    30    27    28 ar
    31    30    31 1
    32    30    29 ar
    33    28    29 ar
    34    33    31 1
    35    31    32 2
    36     1    34 1
    37     2    35 1
    38     3    36 1
    39     4    37 1
    40     5    38 1
    41     7    39 1
    42     8    40 1
    43     8    41 1
    44     8    42 1
    45     9    43 1
    46     9    44 1
    47    11    45 1
    48    15    46 1
    49    15    47 1
    50    16    48 1
    51    19    49 1
    52    19    50 1
    53    20    51 1
    54    20    52 1
    55    21    53 1
    56    21    54 1
    57    24    55 1
    58    26    56 1
    59    27    57 1
    60    28    58 1
    61    29    59 1
    62    33    60 1
    63    33    61 1
    64    62    33 1
@<TRIPOS>SUBSTRUCTURE
     1 7AG         1 TEMP              0 ****  ****    0 ROOT
