@<TRIPOS>MOLECULE
7AH
   48    51     1     0     0
SMALL
bcc


@<TRIPOS>ATOM
      1 O            0.0000     0.0000     0.0000 o          1 7AH      -0.623100
      2 C5           1.2130     0.0000     0.0000 c          1 7AH       0.553100
      3 C4           1.9660     0.0000     1.3060 c3         1 7AH      -0.038100
      4 C3           0.9870     0.0010     2.4500 ca         1 7AH      -0.082300
      5 C2           0.5370    -1.1960     2.9760 ca         1 7AH      -0.059000
      6 C1          -0.3610    -1.1960     4.0260 ca         1 7AH      -0.129500
      7 C19          0.5420     1.1990     2.9790 ca         1 7AH      -0.059000
      8 C20         -0.3560     1.2010     4.0290 ca         1 7AH      -0.129500
      9 C           -0.8120     0.0030     4.5520 ca         1 7AH       0.103900
     10 F           -1.6900     0.0030     5.5790 f          1 7AH      -0.130900
     11 N            1.8870    -0.0070    -1.1670 ns         1 7AH      -0.033100
     12 C6           1.1910    -0.1250    -2.3770 ca         1 7AH      -0.117400
     13 C18          1.6620     0.5170    -3.5090 ca         1 7AH      -0.079000
     14 C17          0.9630     0.3950    -4.7110 ca         1 7AH      -0.077800
     15 C9          -0.2110    -0.3750    -4.7670 ca         1 7AH      -0.233200
     16 C8          -0.6700    -1.0130    -3.6190 ca         1 7AH      -0.084000
     17 C7           0.0290    -0.8910    -2.4390 ca         1 7AH      -0.085000
     18 C11          1.1680     0.9210    -6.0630 cc         1 7AH      -0.149400
     19 C10          0.1590     0.4630    -6.8190 cd         1 7AH      -0.261100
     20 N1          -0.6760    -0.3130    -6.0640 na         1 7AH       0.354600
     21 C12          2.2980     1.8090    -6.5180 c3         1 7AH       0.045500
     22 C16          3.0840     1.1080    -7.6300 c3         1 7AH      -0.025400
     23 C15          4.1920     2.0390    -8.1290 c3         1 7AH       0.146800
     24 N2           3.5970     3.2820    -8.6340 n7         1 7AH      -0.580200
     25 C14          2.8780     3.9970    -7.5720 c3         1 7AH       0.146800
     26 C13          1.7300     3.1250    -7.0560 c3         1 7AH      -0.025400
     27 H41C         2.5890     0.8840     1.3630 hc         1 7AH       0.030700
     28 H42C         2.5880    -0.8850     1.3640 hc         1 7AH       0.030700
     29 H            2.8850     0.0630    -1.1690 hn         1 7AH       0.162500
     30 H2           0.8900    -2.1340     2.5650 ha         1 7AH       0.105500
     31 H19          0.8990     2.1360     2.5700 ha         1 7AH       0.105500
     32 H1          -0.7150    -2.1340     4.4360 ha         1 7AH       0.117500
     33 H20         -0.7050     2.1400     4.4410 ha         1 7AH       0.117500
     34 H18          2.6280     1.0060    -3.4910 ha         1 7AH       0.103000
     35 H7          -0.3250    -1.4010    -1.5510 ha         1 7AH       0.136000
     36 H8          -1.5730    -1.6120    -3.6550 ha         1 7AH       0.102000
     37 HA          -1.5010    -0.7680    -6.4020 hn         1 7AH       0.114700
     38 H10          0.0260     0.6760    -7.8730 h4         1 7AH       0.145000
     39 H12          2.9600     2.0160    -5.6850 hc         1 7AH       0.025700
     40 H161         3.5250     0.1980    -7.2410 hc         1 7AH       0.022450
     41 H162         2.4160     0.8720    -8.4490 hc         1 7AH       0.022450
     42 H131         1.0430     2.9170    -7.8660 hc         1 7AH       0.022450
     43 H132         1.2120     3.6460    -6.2600 hc         1 7AH       0.022450
     44 H151         4.8650     2.2680    -7.3110 h1         1 7AH       0.003200
     45 H152         4.7380     1.5510    -8.9270 h1         1 7AH       0.003200
     46 HB           4.3180     3.8710    -9.0030 hn         1 7AH       0.248800
     47 H141         3.5590     4.2130    -6.7580 h1         1 7AH       0.003200
     48 H142         2.4760     4.9210    -7.9690 h1         1 7AH       0.003200
@<TRIPOS>BOND
     1     1     2 2   
     2     2     3 1   
     3     2    11 1   
     4     3     4 1   
     5     3    27 1   
     6     3    28 1   
     7     4     5 ar  
     8     4     7 ar  
     9     5     6 ar  
    10     5    30 1   
    11     6     9 ar  
    12     6    32 1   
    13     7     8 ar  
    14     7    31 1   
    15     8     9 ar  
    16     8    33 1   
    17     9    10 1   
    18    11    12 1   
    19    11    29 1   
    20    12    13 ar  
    21    12    17 ar  
    22    13    14 ar  
    23    13    34 1   
    24    14    15 ar  
    25    14    18 1   
    26    15    16 ar  
    27    15    20 1   
    28    16    17 ar  
    29    16    36 1   
    30    17    35 1   
    31    18    19 2   
    32    18    21 1   
    33    19    20 1   
    34    19    38 1   
    35    20    37 1   
    36    21    22 1   
    37    21    26 1   
    38    21    39 1   
    39    22    23 1   
    40    22    40 1   
    41    22    41 1   
    42    23    24 1   
    43    23    44 1   
    44    23    45 1   
    45    24    25 1   
    46    24    46 1   
    47    25    26 1   
    48    25    47 1   
    49    25    48 1   
    50    26    42 1   
    51    26    43 1   
@<TRIPOS>SUBSTRUCTURE
     1 7AH         1 TEMP              0 ****  ****    0 ROOT
