@<TRIPOS>MOLECULE
7AJ
   60    64     1     0     0
SMALL
bcc


@<TRIPOS>ATOM
      1 CBA          0.0000     0.0000     0.0000 c3         1 7AJ       0.149800
      2 CBB          1.5300     0.0000     0.0000 c3         1 7AJ       0.155800
      3 NBC          2.0180     0.0000     1.3870 n3         1 7AJ      -0.549600
      4 CBF          3.4840    -0.0760     1.4300 c3         1 7AJ       0.189100
      5 CBD          1.5290     1.1800     2.1140 c3         1 7AJ       0.155800
      6 CBE         -0.0010     1.1810     2.1130 c3         1 7AJ       0.149800
      7 NAZ         -0.4880     1.1800     0.7260 n3         1 7AJ      -0.542600
      8 CAY         -1.9540     1.2560     0.6840 c3         1 7AJ       0.133800
      9 CAX         -2.4110     2.6110     1.2260 c3         1 7AJ      -0.054700
     10 NAM         -3.8730     2.6870     1.1830 na         1 7AJ       0.407600
     11 CAL         -4.5980     3.2470     0.1700 cc         1 7AJ      -0.225100
     12 CAO         -4.7180     2.1980     2.1590 ca         1 7AJ      -0.202200
     13 CAP         -4.4980     1.5460     3.3680 ca         1 7AJ      -0.192000
     14 CAQ         -5.5680     1.1680     4.1530 ca         1 7AJ       0.145100
     15 OAU         -5.3480     0.5310     5.3350 os         1 7AJ      -0.290900
     16 CAV         -3.9870     0.2900     5.6980 c3         1 7AJ       0.240700
     17 CAR         -6.8770     1.4330     3.7430 ca         1 7AJ       0.111100
     18 OAT         -7.9230     1.0540     4.5250 os         1 7AJ      -0.292900
     19 CAW         -9.2350     1.3560     4.0450 c3         1 7AJ       0.240700
     20 CAS         -7.1110     2.0780     2.5460 ca         1 7AJ      -0.146000
     21 CAN         -6.0340     2.4650     1.7460 ca         1 7AJ      -0.083800
     22 CAK         -5.9240     3.1490     0.4460 cd         1 7AJ      -0.097200
     23 CAH         -7.0380     3.6310    -0.3940 cd         1 7AJ      -0.130100
     24 CAI         -7.0490     4.8000    -1.0830 cc         1 7AJ      -0.157200
     25 CAE         -8.3360     4.8730    -1.7700 ca         1 7AJ      -0.215100
     26 CAD         -8.9360     5.8120    -2.6190 ca         1 7AJ       0.047400
     27 ClJ         -8.1100     7.2730    -3.0610 cl         1 7AJ      -0.020400
     28 CAA        -10.2060     5.5390    -3.0940 ca         1 7AJ      -0.254300
     29 CAB        -10.8340     4.3620    -2.7210 ca         1 7AJ       0.420200
     30 NAC        -10.2520     3.4920    -1.9210 nb         1 7AJ      -0.579000
     31 CAF         -9.0360     3.6980    -1.4330 ca         1 7AJ       0.235800
     32 NAG         -8.2220     2.9620    -0.6030 na         1 7AJ       0.264900
     33 H1          -0.3600     0.0320    -1.0210 h1         1 7AJ       0.015950
     34 H2          -0.3600    -0.8980     0.4880 h1         1 7AJ       0.015950
     35 H3           1.8900    -0.8860    -0.5080 h1         1 7AJ       0.015200
     36 H4           1.8900     0.8860    -0.5080 h1         1 7AJ       0.015200
     37 H6           3.8140    -0.1090     2.4610 h1         1 7AJ       0.001033
     38 H7           3.8150    -0.9710     0.9170 h1         1 7AJ       0.001033
     39 H8           3.9060     0.7950     0.9430 h1         1 7AJ       0.001033
     40 H9           1.8880     1.1480     3.1350 h1         1 7AJ       0.015200
     41 H10          1.8890     2.0780     1.6260 h1         1 7AJ       0.015200
     42 H11         -0.3610     2.0670     2.6210 h1         1 7AJ       0.015950
     43 H12         -0.3610     0.2950     2.6210 h1         1 7AJ       0.015950
     44 H14         -2.2920     1.1440    -0.3390 h1         1 7AJ       0.020700
     45 H15         -2.3740     0.4640     1.2910 h1         1 7AJ       0.020700
     46 H16         -1.9900     3.4030     0.6190 h1         1 7AJ       0.042700
     47 H17         -2.0740     2.7230     2.2500 h1         1 7AJ       0.042700
     48 H18         -4.1790     3.7000    -0.7200 h4         1 7AJ       0.148000
     49 H19         -3.4850     1.3730     3.7130 ha         1 7AJ       0.122000
     50 H20         -3.9510    -0.1700     6.6780 h1         1 7AJ      -0.003633
     51 H21         -3.5310    -0.3710     4.9710 h1         1 7AJ      -0.003633
     52 H22         -3.4480     1.2290     5.7200 h1         1 7AJ      -0.003633
     53 H23         -9.3950     0.8610     3.0950 h1         1 7AJ      -0.002967
     54 H24         -9.9700     1.0100     4.7610 h1         1 7AJ      -0.002967
     55 H25         -9.3340     2.4270     3.9150 h1         1 7AJ      -0.002967
     56 H26         -8.1260     2.2830     2.2280 ha         1 7AJ       0.121000
     57 H27         -6.1950     5.4430    -1.2610 ha         1 7AJ       0.136000
     58 H28        -10.7050     6.2390    -3.7530 ha         1 7AJ       0.123000
     59 H29        -11.8290     4.1520    -3.0950 h4         1 7AJ      -0.020900
     60 H30         -8.4560     2.0710    -0.2120 hn         1 7AJ       0.123700
@<TRIPOS>BOND
     1     1     2 1   
     2     1     7 1   
     3     1    33 1   
     4     1    34 1   
     5     2     3 1   
     6     2    35 1   
     7     2    36 1   
     8     3     4 1   
     9     3     5 1   
    10     4    37 1   
    11     4    38 1   
    12     4    39 1   
    13     5     6 1   
    14     5    40 1   
    15     5    41 1   
    16     6     7 1   
    17     6    42 1   
    18     6    43 1   
    19     7     8 1   
    20     8     9 1   
    21     8    44 1   
    22     8    45 1   
    23     9    10 1   
    24     9    46 1   
    25     9    47 1   
    26    10    11 1   
    27    10    12 1   
    28    11    22 2   
    29    11    48 1   
    30    12    13 ar  
    31    12    21 ar  
    32    13    14 ar  
    33    13    49 1   
    34    14    15 1   
    35    14    17 ar  
    36    15    16 1   
    37    16    50 1   
    38    16    51 1   
    39    16    52 1   
    40    17    18 1   
    41    17    20 ar  
    42    18    19 1   
    43    19    53 1   
    44    19    54 1   
    45    19    55 1   
    46    20    21 ar  
    47    20    56 1   
    48    21    22 1   
    49    22    23 1   
    50    23    24 2   
    51    23    32 1   
    52    24    25 1   
    53    24    57 1   
    54    25    26 ar  
    55    25    31 ar  
    56    26    27 1   
    57    26    28 ar  
    58    28    29 ar  
    59    28    58 1   
    60    29    30 ar  
    61    29    59 1   
    62    30    31 ar  
    63    31    32 1   
    64    32    60 1   
@<TRIPOS>SUBSTRUCTURE
     1 7AJ         1 TEMP              0 ****  ****    0 ROOT
