@<TRIPOS>MOLECULE
molecule
   60    64     1     0     0
SMALL
bcc


@<TRIPOS>ATOM
      1 CBA          0.0000     0.0000     0.0000 c3         1 7AJ       0.162300
      2 CBB          1.5300     0.0000     0.0000 c3         1 7AJ       0.163800
      3 NBC          2.0180     0.0000     1.3870 n3         1 7AJ      -0.734600
      4 CBF          3.4840    -0.0760     1.4300 c3         1 7AJ       0.153100
      5 CBD          1.5290     1.1800     2.1140 c3         1 7AJ       0.163800
      6 CBE         -0.0010     1.1810     2.1130 c3         1 7AJ       0.162300
      7 NAZ         -0.4880     1.1800     0.7260 n3         1 7AJ      -0.734600
      8 CAY         -1.9540     1.2560     0.6840 c3         1 7AJ       0.138800
      9 CAX         -2.4110     2.6110     1.2260 c3         1 7AJ       0.047300
     10 NAM         -3.8730     2.6870     1.1830 na         1 7AJ      -0.064400
     11 CAL         -4.5980     3.2470     0.1700 cc         1 7AJ      -0.061100
     12 CAO         -4.7180     2.1980     2.1590 ca         1 7AJ      -0.033200
     13 CAP         -4.4980     1.5460     3.3680 ca         1 7AJ      -0.212000
     14 CAQ         -5.5680     1.1680     4.1530 ca         1 7AJ       0.145100
     15 OAU         -5.3480     0.5310     5.3350 os         1 7AJ      -0.308900
     16 CAV         -3.9870     0.2900     5.6980 c3         1 7AJ       0.126700
     17 CAR         -6.8770     1.4330     3.7430 ca         1 7AJ       0.107100
     18 OAT         -7.9230     1.0540     4.5250 os         1 7AJ      -0.313900
     19 CAW         -9.2350     1.3560     4.0450 c3         1 7AJ       0.127700
     20 CAS         -7.1110     2.0780     2.5460 ca         1 7AJ      -0.160000
     21 CAN         -6.0340     2.4650     1.7460 ca         1 7AJ      -0.087800
     22 CAK         -5.9240     3.1490     0.4460 cd         1 7AJ      -0.120200
     23 CAH         -7.0380     3.6310    -0.3940 cd         1 7AJ       0.050900
     24 CAI         -7.0490     4.8000    -1.0830 cc         1 7AJ      -0.186200
     25 CAE         -8.3360     4.8730    -1.7700 ca         1 7AJ      -0.213100
     26 CAD         -8.9360     5.8120    -2.6190 ca         1 7AJ       0.104400
     27 ClJ         -8.1100     7.2730    -3.0610 cl         1 7AJ      -0.099400
     28 CAA        -10.2060     5.5390    -3.0940 ca         1 7AJ      -0.281300
     29 CAB        -10.8340     4.3620    -2.7210 ca         1 7AJ       0.451200
     30 NAC        -10.2520     3.4920    -1.9210 nb         1 7AJ      -0.714000
     31 CAF         -9.0360     3.6980    -1.4330 ca         1 7AJ       0.475800
     32 NAG         -8.2220     2.9620    -0.6030 na         1 7AJ      -0.274100
     33 H1          -0.3600     0.0320    -1.0210 h1         1 7AJ       0.041950
     34 H2          -0.3600    -0.8980     0.4880 h1         1 7AJ       0.041950
     35 H3           1.8900    -0.8860    -0.5080 h1         1 7AJ       0.042450
     36 H4           1.8900     0.8860    -0.5080 h1         1 7AJ       0.042450
     37 H6           3.8140    -0.1090     2.4610 h1         1 7AJ       0.033033
     38 H7           3.8150    -0.9710     0.9170 h1         1 7AJ       0.033033
     39 H8           3.9060     0.7950     0.9430 h1         1 7AJ       0.033033
     40 H9           1.8880     1.1480     3.1350 h1         1 7AJ       0.042450
     41 H10          1.8890     2.0780     1.6260 h1         1 7AJ       0.042450
     42 H11         -0.3610     2.0670     2.6210 h1         1 7AJ       0.041950
     43 H12         -0.3610     0.2950     2.6210 h1         1 7AJ       0.041950
     44 H14         -2.2920     1.1440    -0.3390 h1         1 7AJ       0.047700
     45 H15         -2.3740     0.4640     1.2910 h1         1 7AJ       0.047700
     46 H16         -1.9900     3.4030     0.6190 h1         1 7AJ       0.068200
     47 H17         -2.0740     2.7230     2.2500 h1         1 7AJ       0.068200
     48 H18         -4.1790     3.7000    -0.7200 h4         1 7AJ       0.176000
     49 H19         -3.4850     1.3730     3.7130 ha         1 7AJ       0.138000
     50 H20         -3.9510    -0.1700     6.6780 h1         1 7AJ       0.040367
     51 H21         -3.5310    -0.3710     4.9710 h1         1 7AJ       0.040367
     52 H22         -3.4480     1.2290     5.7200 h1         1 7AJ       0.040367
     53 H23         -9.3950     0.8610     3.0950 h1         1 7AJ       0.041033
     54 H24         -9.9700     1.0100     4.7610 h1         1 7AJ       0.041033
     55 H25         -9.3340     2.4270     3.9150 h1         1 7AJ       0.041033
     56 H26         -8.1260     2.2830     2.2280 ha         1 7AJ       0.143000
     57 H27         -6.1950     5.4430    -1.2610 ha         1 7AJ       0.162000
     58 H28        -10.7050     6.2390    -3.7530 ha         1 7AJ       0.149000
     59 H29        -11.8290     4.1520    -3.0950 h4         1 7AJ       0.028100
     60 H30         -8.4560     2.0710    -0.2120 hn         1 7AJ       0.309700
@<TRIPOS>BOND
     1     4     3 1
     2     3     2 1
     3     3     5 1
     4     2     1 1
     5    16    15 1
     6     5     6 1
     7     1     7 1
     8    15    14 1
     9     6     7 1
    10     7     8 1
    11    14    13 ar
    12    14    17 ar
    13    13    12 ar
    14     9     8 1
    15     9    10 1
    16    18    17 1
    17    18    19 1
    18    17    20 ar
    19    12    10 1
    20    12    21 ar
    21    10    11 1
    22    21    20 ar
    23    21    22 1
    24    11    22 2
    25    22    23 1
    26    23    24 2
    27    23    32 1
    28    24    25 1
    29    32    31 1
    30    25    31 ar
    31    25    26 ar
    32    31    30 ar
    33    27    26 1
    34    26    28 ar
    35    30    29 ar
    36    28    29 ar
    37     1    33 1
    38     1    34 1
    39     2    35 1
    40     2    36 1
    41     4    37 1
    42     4    38 1
    43     4    39 1
    44     5    40 1
    45     5    41 1
    46     6    42 1
    47     6    43 1
    48     8    44 1
    49     8    45 1
    50     9    46 1
    51     9    47 1
    52    11    48 1
    53    13    49 1
    54    16    50 1
    55    16    51 1
    56    16    52 1
    57    19    53 1
    58    19    54 1
    59    19    55 1
    60    20    56 1
    61    24    57 1
    62    28    58 1
    63    29    59 1
    64    32    60 1
@<TRIPOS>SUBSTRUCTURE
     1 7AJ         1 TEMP              0 ****  ****    0 ROOT
