@<TRIPOS>MOLECULE
7AL
   56    58     1     0     0
SMALL
bcc


@<TRIPOS>ATOM
      1 O1           0.0000     0.0000     0.0000 oh         1 7AL      -0.583800
      2 O2           4.2370     0.6340     0.9870 o          1 7AL      -0.617500
      3 O4           1.0060     4.8950    -3.7790 oh         1 7AL      -0.581800
      4 C11          1.6110     0.3890    -6.3270 c3         1 7AL      -0.011100
      5 C12         -0.8420     0.7270    -6.3190 c3         1 7AL      -0.011100
      6 C1           1.1000    -1.6100    -3.9760 c3         1 7AL       0.058700
      7 C2           0.1160    -1.1550    -5.0480 c3         1 7AL      -0.035400
      8 C3           0.3630     0.2990    -5.4500 c3         1 7AL      -0.048000
      9 C4           0.4340     1.2200    -4.2470 c3         1 7AL      -0.028700
     10 C5           1.2960     0.7280    -3.0940 c3         1 7AL      -0.033000
     11 C6           0.9450    -0.7190    -2.7420 c3         1 7AL      -0.065400
     12 C7           0.8220     2.6430    -4.6490 c3         1 7AL      -0.060400
     13 C8           0.5070     3.5890    -3.4810 c3         1 7AL       0.250300
     14 C9           1.1770     3.0570    -2.2350 c2         1 7AL      -0.160400
     15 C10          0.9840     1.6050    -1.8620 c3         1 7AL       0.010500
     16 C13          2.7910     0.8390    -3.3840 c3         1 7AL      -0.039100
     17 C14          1.9390     1.2480    -0.7220 c3         1 7AL      -0.100400
     18 C15          1.4290     0.0000     0.0000 c3         1 7AL       0.192100
     19 C16          1.9400     0.0000     1.4420 c3         1 7AL      -0.189700
     20 Cl1          0.7350    -3.3190    -3.5180 cl         1 7AL      -0.154400
     21 C17          3.4450    -0.1450     1.4740 c          1 7AL       0.625500
     22 N1           3.7660    -1.2700     2.1250 ns         1 7AL      -0.156500
     23 C18          2.7160    -1.9690     2.5730 c          1 7AL       0.617500
     24 C19          1.4400    -1.2500     2.1950 c3         1 7AL      -0.122400
     25 O3           2.7780    -3.0140     3.1850 o          1 7AL      -0.614500
     26 C20          1.9110     3.8450    -1.4850 c2         1 7AL      -0.173000
     27 H1          -0.3140     0.3100     0.8330 ho         1 7AL       0.395000
     28 H2           0.2840     5.4690    -3.9760 ho         1 7AL       0.388000
     29 H3           1.3580     0.1160    -7.3440 hc         1 7AL       0.011367
     30 H4           1.9930     1.4030    -6.3100 hc         1 7AL       0.011367
     31 H5           2.3680    -0.2880    -5.9490 hc         1 7AL       0.011367
     32 H6          -0.5930     1.6290    -6.8640 hc         1 7AL       0.011367
     33 H7          -1.6980     0.9150    -5.6820 hc         1 7AL       0.011367
     34 H8          -1.0800    -0.0640    -7.0200 hc         1 7AL       0.011367
     35 H9           2.1120    -1.5360    -4.3550 h1         1 7AL       0.045700
     36 H10         -0.8930    -1.2490    -4.6650 hc         1 7AL       0.029700
     37 H11          0.2290    -1.7860    -5.9220 hc         1 7AL       0.029700
     38 H12         -0.5760     1.2810    -3.8600 hc         1 7AL       0.028700
     39 H13          1.6110    -1.0690    -1.9620 hc         1 7AL       0.044200
     40 H14         -0.0790    -0.7640    -2.3940 hc         1 7AL       0.044200
     41 H15          0.2510     2.9410    -5.5210 hc         1 7AL       0.035200
     42 H16          1.8810     2.6810    -4.8720 hc         1 7AL       0.035200
     43 H17         -0.5640     3.6300    -3.3270 h1         1 7AL       0.002700
     44 H18         -0.0410     1.4420    -1.5510 hc         1 7AL       0.060700
     45 H19          3.1110     1.8650    -3.2430 hc         1 7AL       0.022700
     46 H20          2.9840     0.5390    -4.4070 hc         1 7AL       0.022700
     47 H21          3.3390     0.1940    -2.7090 hc         1 7AL       0.022700
     48 H22          2.9260     1.0550    -1.1260 hc         1 7AL       0.054700
     49 H23          1.9900     2.0740    -0.0230 hc         1 7AL       0.054700
     50 H24          1.7900    -0.8850    -0.5100 h1         1 7AL       0.053700
     51 H25          1.6350     0.9010     1.9600 hc         1 7AL       0.065700
     52 H26          4.7120    -1.5640     2.2650 hn         1 7AL       0.196500
     53 H27          0.8340    -1.8690     1.5440 hc         1 7AL       0.060700
     54 H28          0.8880    -0.9640     3.0820 hc         1 7AL       0.060700
     55 H29          2.3860     3.4560    -0.5930 ha         1 7AL       0.104500
     56 H30          2.0410     4.8850    -1.7580 ha         1 7AL       0.104500
@<TRIPOS>BOND
     1     1    18 1   
     2     1    27 1   
     3     2    21 2   
     4     3    13 1   
     5     3    28 1   
     6     4     8 1   
     7     4    29 1   
     8     4    30 1   
     9     4    31 1   
    10     5     8 1   
    11     5    32 1   
    12     5    33 1   
    13     5    34 1   
    14     6     7 1   
    15     6    11 1   
    16     6    20 1   
    17     6    35 1   
    18     7     8 1   
    19     7    36 1   
    20     7    37 1   
    21     8     9 1   
    22     9    10 1   
    23     9    12 1   
    24     9    38 1   
    25    10    11 1   
    26    10    15 1   
    27    10    16 1   
    28    11    39 1   
    29    11    40 1   
    30    12    13 1   
    31    12    41 1   
    32    12    42 1   
    33    13    14 1   
    34    13    43 1   
    35    14    15 1   
    36    14    26 2   
    37    15    17 1   
    38    15    44 1   
    39    16    45 1   
    40    16    46 1   
    41    16    47 1   
    42    17    18 1   
    43    17    48 1   
    44    17    49 1   
    45    18    19 1   
    46    18    50 1   
    47    19    21 1   
    48    19    24 1   
    49    19    51 1   
    50    21    22 1   
    51    22    23 1   
    52    22    52 1   
    53    23    24 1   
    54    23    25 2   
    55    24    53 1   
    56    24    54 1   
    57    26    55 1   
    58    26    56 1   
@<TRIPOS>SUBSTRUCTURE
     1 7AL         1 TEMP              0 ****  ****    0 ROOT
