@<TRIPOS>MOLECULE
molecule
   56    58     1     0     0
SMALL
bcc


@<TRIPOS>ATOM
      1 O1           0.0000     0.0000     0.0000 oh         1 7AL      -0.598800
      2 O2           4.2370     0.6340     0.9870 o          1 7AL      -0.580500
      3 O4           1.0060     4.8950    -3.7790 oh         1 7AL      -0.602800
      4 C11          1.6110     0.3890    -6.3270 c3         1 7AL      -0.088600
      5 C12         -0.8420     0.7270    -6.3190 c3         1 7AL      -0.088600
      6 C1           1.1000    -1.6100    -3.9760 c3         1 7AL       0.065700
      7 C2           0.1160    -1.1550    -5.0480 c3         1 7AL      -0.074400
      8 C3           0.3630     0.2990    -5.4500 c3         1 7AL      -0.054000
      9 C4           0.4340     1.2200    -4.2470 c3         1 7AL      -0.045700
     10 C5           1.2960     0.7280    -3.0940 c3         1 7AL      -0.042000
     11 C6           0.9450    -0.7190    -2.7420 c3         1 7AL      -0.083400
     12 C7           0.8220     2.6430    -4.6490 c3         1 7AL      -0.090400
     13 C8           0.5070     3.5890    -3.4810 c3         1 7AL       0.190300
     14 C9           1.1770     3.0570    -2.2350 c2         1 7AL      -0.142400
     15 C10          0.9840     1.6050    -1.8620 c3         1 7AL      -0.017500
     16 C13          2.7910     0.8390    -3.3840 c3         1 7AL      -0.098100
     17 C14          1.9390     1.2480    -0.7220 c3         1 7AL      -0.109400
     18 C15          1.4290     0.0000     0.0000 c3         1 7AL       0.153100
     19 C16          1.9400     0.0000     1.4420 c3         1 7AL      -0.210700
     20 Cl1          0.7350    -3.3190    -3.5180 cl         1 7AL      -0.218400
     21 C17          3.4450    -0.1450     1.4740 c          1 7AL       0.711500
     22 N1           3.7660    -1.2700     2.1250 ns         1 7AL      -0.577500
     23 C18          2.7160    -1.9690     2.5730 c          1 7AL       0.705500
     24 C19          1.4400    -1.2500     2.1950 c3         1 7AL      -0.180400
     25 O3           2.7780    -3.0140     3.1850 o          1 7AL      -0.577500
     26 C20          1.9110     3.8450    -1.4850 c2         1 7AL      -0.209000
     27 H1          -0.3140     0.2480     0.8540 ho         1 7AL       0.403000
     28 H2           0.2850     5.4660    -3.9890 ho         1 7AL       0.401000
     29 H3           2.4050    -0.2040    -5.8880 hc         1 7AL       0.037867
     30 H4           1.9300     1.4220    -6.3980 hc         1 7AL       0.037867
     31 H5           1.3850     0.0130    -7.3170 hc         1 7AL       0.037867
     32 H6          -1.0790    -0.0630    -7.0210 hc         1 7AL       0.037867
     33 H7          -1.6990     0.9130    -5.6820 hc         1 7AL       0.037867
     34 H8          -0.5930     1.6300    -6.8630 hc         1 7AL       0.037867
     35 H9           2.1120    -1.5360    -4.3550 h1         1 7AL       0.076700
     36 H10          0.2290    -1.7860    -5.9220 hc         1 7AL       0.056200
     37 H11         -0.8930    -1.2490    -4.6650 hc         1 7AL       0.056200
     38 H12         -0.5760     1.2810    -3.8600 hc         1 7AL       0.045700
     39 H13         -0.0790    -0.7640    -2.3940 hc         1 7AL       0.063200
     40 H14          1.6110    -1.0690    -1.9620 hc         1 7AL       0.063200
     41 H15          1.8810     2.6810    -4.8710 hc         1 7AL       0.056700
     42 H16          0.2510     2.9410    -5.5210 hc         1 7AL       0.056700
     43 H17         -0.5640     3.6300    -3.3270 h1         1 7AL       0.037700
     44 H18         -0.0410     1.4420    -1.5500 hc         1 7AL       0.082700
     45 H19          3.3170     0.0320    -2.8900 hc         1 7AL       0.043367
     46 H20          2.9570     0.7770    -4.4530 hc         1 7AL       0.043367
     47 H21          3.1610     1.7890    -3.0170 hc         1 7AL       0.043367
     48 H22          1.9900     2.0740    -0.0230 hc         1 7AL       0.069200
     49 H23          2.9260     1.0550    -1.1260 hc         1 7AL       0.069200
     50 H24          1.7900    -0.8850    -0.5100 h1         1 7AL       0.083700
     51 H25          1.6350     0.9010     1.9600 hc         1 7AL       0.094700
     52 H26          4.7120    -1.5650     2.2630 hn         1 7AL       0.349500
     53 H27          0.8340    -1.8690     1.5440 hc         1 7AL       0.095200
     54 H28          0.8880    -0.9640     3.0820 hc         1 7AL       0.095200
     55 H29          2.0420     4.8850    -1.7590 ha         1 7AL       0.126000
     56 H30          2.3880     3.4550    -0.5940 ha         1 7AL       0.126000
@<TRIPOS>BOND
     1     4     8 1
     2     5     8 1
     3     8     7 1
     4     8     9 1
     5    12     9 1
     6    12    13 1
     7     3    13 1
     8     7     6 1
     9     9    10 1
    10    16    10 1
    11    13    14 1
    12     6    11 1
    13     6    20 1
    14    10    11 1
    15    10    15 1
    16    14    26 2
    17    14    15 1
    18    15    17 1
    19    17    18 1
    20    18     1 1
    21    18    19 1
    22    19    24 1
    23    19    21 1
    24    24    23 1
    25     2    21 2
    26    21    22 1
    27    23    22 1
    28    23    25 2
    29     1    27 1
    30     3    28 1
    31     4    29 1
    32     4    30 1
    33     4    31 1
    34     5    32 1
    35     5    33 1
    36     5    34 1
    37     6    35 1
    38     7    36 1
    39     7    37 1
    40     9    38 1
    41    11    39 1
    42    11    40 1
    43    12    41 1
    44    12    42 1
    45    13    43 1
    46    15    44 1
    47    16    45 1
    48    16    46 1
    49    16    47 1
    50    17    48 1
    51    17    49 1
    52    18    50 1
    53    19    51 1
    54    22    52 1
    55    24    53 1
    56    24    54 1
    57    26    55 1
    58    26    56 1
@<TRIPOS>SUBSTRUCTURE
     1 7AL         1 TEMP              0 ****  ****    0 ROOT
