@<TRIPOS>MOLECULE
molecule
   51    54     1     0     0
SMALL
bcc


@<TRIPOS>ATOM
      1 CAP          0.0000     0.0000     0.0000 ca         1 7AM      -0.122500
      2 CAQ          1.3800     0.0000     0.0000 ca         1 7AM      -0.125000
      3 CAR          2.0740     0.0000     1.1970 ca         1 7AM      -0.105300
      4 CAU          3.5810     0.0010     1.1900 c3         1 7AM      -0.042800
      5 CAS          1.3910     0.0000     2.4010 ca         1 7AM      -0.125000
      6 CAT          0.0110    -0.0010     2.4140 ca         1 7AM      -0.122500
      7 CAK         -0.6950    -0.0000     1.2100 ca         1 7AM       0.011200
      8 CAD         -2.1740     0.0000     1.2170 cc         1 7AM      -0.047600
      9 SAE         -3.1710     0.0000    -0.2250 ss         1 7AM      -0.201900
     10 CAC         -2.9210    -0.0060     2.3210 cd         1 7AM      -0.051200
     11 C5          -4.3490    -0.0050     2.0820 ca         1 7AM      -0.403400
     12 C6          -4.6540    -0.0010     0.7170 ca         1 7AM       0.567600
     13 N1          -5.9380     0.0010     0.3380 nb         1 7AM      -0.804000
     14 C2          -6.9070    -0.0020     1.2250 ca         1 7AM       0.754900
     15 N3          -6.6710    -0.0060     2.5250 nb         1 7AM      -0.785000
     16 C4          -5.4340    -0.0100     2.9980 ca         1 7AM       0.798200
     17 N           -5.2030    -0.0140     4.3610 nu         1 7AM      -0.843900
     18 CA          -6.3320    -0.0140     5.2950 c3         1 7AM       0.129500
     19 C           -6.7940     1.4020     5.5240 c          1 7AM       0.645100
     20 O           -6.2360     2.3210     4.9620 o          1 7AM      -0.561100
     21 NAN         -7.8280     1.6480     6.3530 ns         1 7AM      -0.568900
     22 PBC         -8.3310     3.1890     6.6020 p5         1 7AM       1.108900
     23 OBD         -9.4710     3.1900     7.5460 o          1 7AM      -0.895167
     24 OBF         -7.1210     4.0550     7.2200 o          1 7AM      -0.895167
     25 OBE         -8.7930     3.8350     5.2010 o          1 7AM      -0.895167
     26 CB          -5.8930    -0.6280     6.6260 c3         1 7AM      -0.049100
     27 CG          -5.5470    -2.0800     6.4190 ca         1 7AM      -0.059300
     28 CD1         -4.2550    -2.4430     6.0900 ca         1 7AM      -0.125000
     29 CE1         -3.9380    -3.7750     5.9010 ca         1 7AM      -0.133500
     30 CZ          -4.9140    -4.7440     6.0390 ca         1 7AM      -0.152000
     31 CE2         -6.2060    -4.3820     6.3690 ca         1 7AM      -0.133500
     32 CD2         -6.5220    -3.0500     6.5640 ca         1 7AM      -0.125000
     33 H1          -0.5420    -0.0640    -0.9360 ha         1 7AM       0.136500
     34 H2           1.9210     0.0010    -0.9390 ha         1 7AM       0.122500
     35 H3           3.9460    -0.7490     1.8820 hc         1 7AM       0.035367
     36 H4           3.9430     0.9760     1.4900 hc         1 7AM       0.035367
     37 H5           3.9380    -0.2260     0.1920 hc         1 7AM       0.035367
     38 H6           1.9410     0.0030     3.3340 ha         1 7AM       0.122500
     39 H7          -0.5210    -0.0770     3.3540 ha         1 7AM       0.136500
     40 H8          -2.4940    -0.0110     3.3170 ha         1 7AM       0.142000
     41 H9          -7.9310    -0.0040     0.8710 h5         1 7AM       0.057100
     42 H10         -4.2670     0.0450     4.7100 hn         1 7AM       0.441800
     43 H11         -7.1450    -0.5960     4.8790 h1         1 7AM       0.083700
     44 H12         -8.3180     0.8870     6.7800 hn         1 7AM       0.254500
     45 H15         -6.7000    -0.5480     7.3440 hc         1 7AM       0.074200
     46 H16         -5.0240    -0.1000     6.9980 hc         1 7AM       0.074200
     47 H17         -3.4900    -1.6840     5.9810 ha         1 7AM       0.132500
     48 H18         -2.9250    -4.0600     5.6430 ha         1 7AM       0.115000
     49 H19         -4.6660    -5.7880     5.8880 ha         1 7AM       0.110000
     50 H20         -6.9710    -5.1420     6.4800 ha         1 7AM       0.115000
     51 H21         -7.5350    -2.7650     6.8220 ha         1 7AM       0.132500
@<TRIPOS>BOND
     1    23    22 1
     2    25    22 1
     3    22    21 1
     4    22    24 1
     5    32    31 ar
     6    32    27 ar
     7    21    19 1
     8    31    30 ar
     9    26    27 1
    10    26    18 1
    11    27    28 ar
    12    19    20 2
    13    19    18 1
    14    30    29 ar
    15    18    17 1
    16    28    29 ar
    17    17    16 1
    18    15    16 ar
    19    15    14 ar
    20    16    11 ar
    21    14    13 ar
    22    11    10 1
    23    11    12 ar
    24    10     8 2
    25     1     2 ar
    26     1     7 ar
    27    12    13 ar
    28    12     9 1
    29     2     3 ar
    30     8     7 1
    31     8     9 1
    32     7     6 ar
    33     3     4 1
    34     3     5 ar
    35     6     5 ar
    36     1    33 1
    37     2    34 1
    38     4    35 1
    39     4    36 1
    40     4    37 1
    41     5    38 1
    42     6    39 1
    43    10    40 1
    44    14    41 1
    45    17    42 1
    46    18    43 1
    47    21    44 1
    48    26    45 1
    49    26    46 1
    50    28    47 1
    51    29    48 1
    52    30    49 1
    53    31    50 1
    54    32    51 1
@<TRIPOS>SUBSTRUCTURE
     1 7AM         1 TEMP              0 ****  ****    0 ROOT
