@<TRIPOS>MOLECULE
7AN
   29    30     1     0     0
SMALL
bcc


@<TRIPOS>ATOM
      1 C10          0.0000     0.0000     0.0000 ca         1 7AN      -0.084000
      2 N            1.5990    -1.4710     6.8750 ns         1 7AN      -0.206900
      3 C            1.1090    -2.6510     8.9930 c3         1 7AN      -0.068100
      4 O            1.4050    -3.6810     6.8900 o          1 7AN      -0.647100
      5 C01          2.3460    -0.0050     3.4850 cc         1 7AN      -0.154400
      6 N01          3.4060     0.0000     1.5340 na         1 7AN       0.357600
      7 C02          2.0740    -0.0180     4.9670 c3         1 7AN       0.060800
      8 C03          1.3470    -0.0010     2.4140 ca         1 7AN      -0.092800
      9 C04          2.0680     0.0000     1.2070 ca         1 7AN      -0.225200
     10 C05          1.8640    -1.4580     5.4340 c3         1 7AN       0.047000
     11 C06          3.5520    -0.0000     2.8940 cd         1 7AN      -0.260100
     12 C07         -0.0490    -0.0070     2.3910 ca         1 7AN      -0.045000
     13 C08          1.3780     0.0000     0.0000 ca         1 7AN      -0.102000
     14 C09         -0.7080    -0.0020     1.1940 ca         1 7AN      -0.129000
     15 C11          1.3810    -2.6390     7.5110 c          1 7AN       0.568100
     16 H1          -0.5360     0.0040    -0.9410 ha         1 7AN       0.100000
     17 H2           1.5820    -0.6120     7.3880 hn         1 7AN       0.171500
     18 H3           1.9520    -2.2210     9.5190 hc         1 7AN       0.021033
     19 H4           0.9590    -3.6720     9.3250 hc         1 7AN       0.021033
     20 H5           0.2180    -2.0700     9.2010 hc         1 7AN       0.021033
     21 H6           4.1590     0.0040     0.8750 hn         1 7AN       0.113700
     22 H7           2.9170     0.4140     5.4930 hc         1 7AN       0.013700
     23 H8           1.1830     0.5630     5.1750 hc         1 7AN       0.013700
     24 H9           2.7540    -2.0390     5.2260 h1         1 7AN       0.030700
     25 H10          1.0200    -1.8890     4.9090 h1         1 7AN       0.030700
     26 H11          4.5010     0.0040     3.4180 h4         1 7AN       0.140000
     27 H12         -0.6080    -0.0090     3.3190 ha         1 7AN       0.100000
     28 H13          1.9210     0.0010    -0.9370 ha         1 7AN       0.099000
     29 H14         -1.7910    -0.0020     1.1770 ha         1 7AN       0.103000
@<TRIPOS>BOND
     1     1    13 ar  
     2     1    14 ar  
     3     1    16 1   
     4     2    10 1   
     5     2    15 1   
     6     2    17 1   
     7     3    15 1   
     8     3    18 1   
     9     3    19 1   
    10     3    20 1   
    11     4    15 2   
    12     5     7 1   
    13     5     8 1   
    14     5    11 2   
    15     6     9 1   
    16     6    11 1   
    17     6    21 1   
    18     7    10 1   
    19     7    22 1   
    20     7    23 1   
    21     8     9 ar  
    22     8    12 ar  
    23     9    13 ar  
    24    10    24 1   
    25    10    25 1   
    26    11    26 1   
    27    12    14 ar  
    28    12    27 1   
    29    13    28 1   
    30    14    29 1   
@<TRIPOS>SUBSTRUCTURE
     1 7AN         1 TEMP              0 ****  ****    0 ROOT
