@<TRIPOS>MOLECULE
molecule
   29    30     1     0     0
SMALL
bcc


@<TRIPOS>ATOM
      1 C10          0.0000     0.0000     0.0000 ca         1 7AN      -0.107000
      2 N            1.5990    -1.4710     6.8750 ns         1 7AN      -0.593900
      3 C            1.1090    -2.6510     8.9930 c3         1 7AN      -0.172100
      4 O            1.4050    -3.6810     6.8900 o          1 7AN      -0.608100
      5 C01          2.3460    -0.0050     3.4850 cc         1 7AN      -0.158400
      6 N01          3.4060     0.0000     1.5340 na         1 7AN      -0.181400
      7 C02          2.0740    -0.0180     4.9670 c3         1 7AN      -0.019200
      8 C03          1.3470    -0.0010     2.4140 ca         1 7AN      -0.096800
      9 C04          2.0680     0.0000     1.2070 ca         1 7AN      -0.037200
     10 C05          1.8640    -1.4580     5.4340 c3         1 7AN       0.113000
     11 C06          3.5520    -0.0000     2.8940 cd         1 7AN      -0.091100
     12 C07         -0.0490    -0.0070     2.3910 ca         1 7AN      -0.079000
     13 C08          1.3780     0.0000     0.0000 ca         1 7AN      -0.143000
     14 C09         -0.7080    -0.0020     1.1940 ca         1 7AN      -0.155000
     15 C11          1.3810    -2.6390     7.5110 c          1 7AN       0.654100
     16 H1          -0.5360     0.0040    -0.9410 ha         1 7AN       0.130000
     17 H2           1.5820    -0.6120     7.3880 hn         1 7AN       0.309500
     18 H3           1.9520    -2.2210     9.5190 hc         1 7AN       0.059367
     19 H4           0.9590    -3.6720     9.3250 hc         1 7AN       0.059367
     20 H5           0.2180    -2.0700     9.2010 hc         1 7AN       0.059367
     21 H6           4.1590     0.0040     0.8750 hn         1 7AN       0.296700
     22 H7           2.9170     0.4140     5.4930 hc         1 7AN       0.047200
     23 H8           1.1830     0.5630     5.1750 hc         1 7AN       0.047200
     24 H9           2.7540    -2.0390     5.2260 h1         1 7AN       0.058200
     25 H10          1.0200    -1.8890     4.9090 h1         1 7AN       0.058200
     26 H11          4.5010     0.0040     3.4180 h4         1 7AN       0.166000
     27 H12         -0.6080    -0.0090     3.3190 ha         1 7AN       0.130000
     28 H13          1.9210     0.0010    -0.9370 ha         1 7AN       0.125000
     29 H14         -1.7910    -0.0020     1.1770 ha         1 7AN       0.129000
@<TRIPOS>BOND
     1    11     6 1
     2    11     5 2
     3     6     9 1
     4     5     7 1
     5     5     8 1
     6     9    13 ar
     7     9     8 ar
     8     7    10 1
     9    10     2 1
    10    13     1 ar
    11     8    12 ar
    12     2    15 1
    13     1    14 ar
    14    12    14 ar
    15    15     4 2
    16    15     3 1
    17     1    16 1
    18     2    17 1
    19     3    18 1
    20     3    19 1
    21     3    20 1
    22     6    21 1
    23     7    22 1
    24     7    23 1
    25    10    24 1
    26    10    25 1
    27    11    26 1
    28    12    27 1
    29    13    28 1
    30    14    29 1
@<TRIPOS>SUBSTRUCTURE
     1 7AN         1 TEMP              0 ****  ****    0 ROOT
