@<TRIPOS>MOLECULE
7AP
   29    30     1     0     0
SMALL
bcc


@<TRIPOS>ATOM
      1 N1           0.0000     0.0000     0.0000 nb         1 7AP      -0.708000
      2 C2           1.3460     0.0000     0.0000 ca         1 7AP       0.735900
      3 N2           1.9800    -0.0030    -1.2610 nv         1 7AP      -0.505500
      4 N3           2.1440     0.0000     1.0730 nb         1 7AP      -0.716000
      5 C4           1.4880     0.0010     2.2490 ca         1 7AP       0.530900
      6 N4           2.2680     0.0020     3.4340 nv         1 7AP      -0.562500
      7 C4A          0.1120     0.0000     2.3790 ca         1 7AP       0.017000
      8 C8A         -0.6170    -0.0000     1.1890 ca         1 7AP       0.573000
      9 N5          -0.4840     0.0010     3.5880 nb         1 7AP      -0.450000
     10 C6          -1.8260     0.0000     3.6090 ca         1 7AP       0.184300
     11 C7          -2.5520    -0.0000     2.4500 ca         1 7AP       0.369900
     12 N8          -1.9540    -0.0010     1.2420 nb         1 7AP      -0.563000
     13 C1'         -2.4990     0.0020     4.9350 c3         1 7AP       0.150800
     14 O1'         -1.7370     0.7820     5.8730 oh         1 7AP      -0.570800
     15 C2'         -2.7620    -1.3930     5.5630 c3         1 7AP       0.191100
     16 O2'         -3.6530    -2.1500     4.7450 oh         1 7AP      -0.590800
     17 C3'         -1.4910    -2.2070     5.7660 c3         1 7AP      -0.022100
     18 H77         -3.6340    -0.0010     2.5030 h4         1 7AP      -0.009900
     19 H1''        -3.4600     0.4880     4.8100 h1         1 7AP      -0.001300
     20 H2''        -3.2280    -1.2470     6.5290 h1         1 7AP      -0.001300
     21 H3'1        -1.6780    -2.9950     6.4850 hc         1 7AP       0.016033
     22 H3'2        -1.1880    -2.6440     4.8220 hc         1 7AP       0.016033
     23 H3'3        -0.7030    -1.5610     6.1340 hc         1 7AP       0.016033
     24 HO1         -4.3320    -2.5220     5.2830 ho         1 7AP       0.392000
     25 HO2         -2.1650     1.6100     6.0140 ho         1 7AP       0.388000
     26 HN1          2.9770     0.0560    -1.3200 hn         1 7AP       0.277300
     27 HN2          2.0770    -0.6600     4.1590 hn         1 7AP       0.282300
     28 HN3          1.4320    -0.0620    -2.0970 hn         1 7AP       0.277300
     29 HN4          2.9900     0.6850     3.5570 hn         1 7AP       0.282300
@<TRIPOS>BOND
     1     1     2 ar  
     2     1     8 ar  
     3     2     3 1   
     4     2     4 ar  
     5     3    26 1   
     6     3    28 1   
     7     4     5 ar  
     8     5     6 1   
     9     5     7 ar  
    10     6    27 1   
    11     6    29 1   
    12     7     8 ar  
    13     7     9 ar  
    14     8    12 ar  
    15     9    10 ar  
    16    10    11 ar  
    17    10    13 1   
    18    11    12 ar  
    19    11    18 1   
    20    13    14 1   
    21    13    15 1   
    22    13    19 1   
    23    14    25 1   
    24    15    16 1   
    25    15    17 1   
    26    15    20 1   
    27    16    24 1   
    28    17    21 1   
    29    17    22 1   
    30    17    23 1   
@<TRIPOS>SUBSTRUCTURE
     1 7AP         1 TEMP              0 ****  ****    0 ROOT
