@<TRIPOS>MOLECULE
molecule
   29    30     1     0     0
SMALL
bcc


@<TRIPOS>ATOM
      1 N1           0.0000     0.0000     0.0000 nb         1 7AP      -0.777000
      2 C2           1.3460     0.0000     0.0000 ca         1 7AP       0.943900
      3 N2           1.9800    -0.0030    -1.2610 nv         1 7AP      -0.990500
      4 N3           2.1440     0.0000     1.0730 nb         1 7AP      -0.784000
      5 C4           1.4880     0.0010     2.2490 ca         1 7AP       0.710900
      6 N4           2.2680     0.0020     3.4340 nv         1 7AP      -1.031500
      7 C4A          0.1120     0.0000     2.3790 ca         1 7AP       0.052000
      8 C8A         -0.6170    -0.0000     1.1890 ca         1 7AP       0.632000
      9 N5          -0.4840     0.0010     3.5880 nb         1 7AP      -0.551000
     10 C6          -1.8260     0.0000     3.6090 ca         1 7AP       0.237300
     11 C7          -2.5520    -0.0000     2.4500 ca         1 7AP       0.375900
     12 N8          -1.9540    -0.0010     1.2420 nb         1 7AP      -0.646000
     13 C1'         -2.4990     0.0020     4.9350 c3         1 7AP       0.109800
     14 O1'         -1.7370     0.7820     5.8730 oh         1 7AP      -0.586800
     15 C2'         -2.7620    -1.3930     5.5630 c3         1 7AP       0.151100
     16 O2'         -3.6530    -2.1500     4.7450 oh         1 7AP      -0.609800
     17 C3'         -1.4910    -2.2070     5.7660 c3         1 7AP      -0.105100
     18 H77         -3.6340    -0.0010     2.5030 h4         1 7AP       0.037100
     19 H1''        -3.4600     0.4880     4.8100 h1         1 7AP       0.035700
     20 H2''        -3.2280    -1.2470     6.5290 h1         1 7AP       0.035700
     21 H3'1        -1.6780    -2.9950     6.4850 hc         1 7AP       0.049367
     22 H3'2        -1.1880    -2.6440     4.8220 hc         1 7AP       0.049367
     23 H3'3        -0.7030    -1.5610     6.1340 hc         1 7AP       0.049367
     24 HO1         -4.3320    -2.5220     5.2830 ho         1 7AP       0.406000
     25 HO2         -2.1650     1.6100     6.0140 ho         1 7AP       0.404000
     26 HN1          2.9770     0.0560    -1.3200 hn         1 7AP       0.451300
     27 HN2          2.0770    -0.6600     4.1590 hn         1 7AP       0.449300
     28 HN3          1.4320    -0.0620    -2.0970 hn         1 7AP       0.451300
     29 HN4          2.9900     0.6850     3.5570 hn         1 7AP       0.449300
@<TRIPOS>BOND
     1     1     2 ar
     2     1     8 ar
     3     2     3 1
     4     2     4 ar
     5     4     5 ar
     6     5     6 1
     7     5     7 ar
     8     7     8 ar
     9     7     9 ar
    10     8    12 ar
    11     9    10 ar
    12    10    11 ar
    13    10    13 1
    14    11    12 ar
    15    11    18 1
    16    13    14 1
    17    13    15 1
    18    13    19 1
    19    15    16 1
    20    15    17 1
    21    15    20 1
    22    17    21 1
    23    17    22 1
    24    17    23 1
    25    24    16 1
    26    25    14 1
    27    26     3 1
    28    27     6 1
    29    28     3 1
    30    29     6 1
@<TRIPOS>SUBSTRUCTURE
     1 7AP         1 TEMP              0 ****  ****    0 ROOT
