@<TRIPOS>MOLECULE
7AR
   34    36     1     0     0
SMALL
bcc


@<TRIPOS>ATOM
      1 C10          0.0000     0.0000     0.0000 ca         1 7AR      -0.106500
      2 N12         -1.8980     2.1000     3.1780 n          1 7AR      -0.057400
      3 C13         -1.5780     3.1970     2.4690 c          1 7AR       0.649100
      4 C15         -2.7290     3.5600     1.6160 ca         1 7AR      -0.142100
      5 C17         -4.9460     2.6700     1.2320 ca         1 7AR      -0.026500
      6 C20         -4.1980     4.6290     0.0500 ca         1 7AR      -0.041600
      7 C21         -2.9720     4.5690     0.6990 ca         1 7AR      -0.026500
      8 C02         -1.6530     1.4480     5.5030 c          1 7AR       0.975600
      9 O03         -1.0150     0.8970     6.5470 o          1 7AR      -0.875300
     10 C04         -1.0090     1.4450     4.1400 c3         1 7AR      -0.087300
     11 C05         -0.7540     0.0030     3.7000 c3         1 7AR       0.009900
     12 C06         -0.0000     0.0010     2.3940 ca         1 7AR      -0.072300
     13 C07          1.3820     0.0010     2.3940 ca         1 7AR      -0.104000
     14 C08          2.0730     0.0000     1.1980 ca         1 7AR      -0.106500
     15 C09          1.3820     0.0000     0.0000 ca         1 7AR      -0.125000
     16 C11         -0.6910     0.0010     1.1970 ca         1 7AR      -0.104000
     17 O14         -0.5190     3.7900     2.5200 o          1 7AR      -0.609500
     18 C16         -3.7260     2.6000     1.8850 ca         1 7AR      -0.142100
     19 C18         -5.1780     3.6860     0.3150 ca         1 7AR      -0.041600
     20 Cl1         -6.7050     3.7760    -0.5040 cl         1 7AR      -0.022400
     21 Cl2         -4.5050     5.8930    -1.1000 cl         1 7AR      -0.022400
     22 C23         -3.1470     1.6870     2.8920 c          1 7AR       0.649100
     23 O24         -3.7030     0.7240     3.3800 o          1 7AR      -0.609500
     24 H1          -0.5420    -0.0000    -0.9380 ha         1 7AR       0.092000
     25 H2          -5.7150     1.9350     1.4360 ha         1 7AR       0.126000
     26 H3          -2.2090     5.3080     0.4880 ha         1 7AR       0.126000
     27 H5          -0.0680     1.9800     4.1850 h1         1 7AR       0.061700
     28 H6          -1.7010    -0.5080     3.5710 hc         1 7AR       0.051200
     29 H7          -0.1690    -0.5070     4.4550 hc         1 7AR       0.051200
     30 H8           1.9230     0.0010     3.3320 ha         1 7AR       0.111000
     31 H9           3.1560     0.0000     1.1980 ha         1 7AR       0.092000
     32 H10          1.9240    -0.0010    -0.9380 ha         1 7AR       0.090000
     33 H11         -1.7750     0.0010     1.1960 ha         1 7AR       0.111000
     34 O01         -2.7270     1.9760     5.6610 o          1 7AR      -0.875300
@<TRIPOS>BOND
     1     1    15 ar  
     2     1    16 ar  
     3     1    24 1   
     4     2     3 1   
     5     2    10 1   
     6     2    22 1   
     7     3     4 1   
     8     3    17 2   
     9     4     7 ar  
    10     4    18 ar  
    11     5    18 ar  
    12     5    19 ar  
    13     5    25 1   
    14     6     7 ar  
    15     6    19 ar  
    16     6    21 1   
    17     7    26 1   
    18     8     9 1   
    19     8    10 1   
    20     8    34 1   
    21    10    11 1   
    22    10    27 1   
    23    11    12 1   
    24    11    28 1   
    25    11    29 1   
    26    12    13 ar  
    27    12    16 ar  
    28    13    14 ar  
    29    13    30 1   
    30    14    15 ar  
    31    14    31 1   
    32    15    32 1   
    33    16    33 1   
    34    18    22 1   
    35    19    20 1   
    36    22    23 2   
@<TRIPOS>SUBSTRUCTURE
     1 7AR         1 TEMP              0 ****  ****    0 ROOT
