@<TRIPOS>MOLECULE
molecule
   65    67     1     0     0
SMALL
bcc


@<TRIPOS>ATOM
      1 C17          0.0000     0.0000     0.0000 ca         1 7AS      -0.091000
      2 C10         -5.8220     5.3120    -0.8290 cx         1 7AS      -0.130900
      3 C18          1.3800     0.0000     0.0000 ca         1 7AS      -0.114500
      4 C19          2.0750     0.0000     1.2070 cp         1 7AS      -0.043000
      5 C12         -3.4730     4.3510    -1.3770 c2         1 7AS       0.457200
      6 C11         -4.8400     5.9230     0.1740 cx         1 7AS      -0.130900
      7 C15         -2.2000     0.0050     1.1910 c3         1 7AS       0.175800
      8 C16         -0.6930     0.0060     1.1970 ca         1 7AS      -0.070300
      9 C01         -3.5200     4.1650     3.0710 c3         1 7AS      -0.128600
     10 C03         -4.4780     3.3270     5.2210 c3         1 7AS      -0.128600
     11 C04         -4.7090     1.9700     3.1360 c3         1 7AS      -0.103400
     12 C05         -3.9880     1.4860     1.8750 c3         1 7AS       0.082500
     13 C06         -3.7640     2.6520     0.9470 c          1 7AS       0.662100
     14 O07         -2.6420     2.9280     0.5820 o          1 7AS      -0.557100
     15 N08         -4.8110     3.3850     0.5210 ns         1 7AS      -0.560900
     16 C09         -4.5930     4.5190    -0.3820 cx         1 7AS       0.015100
     17 N13         -2.3050     4.7960    -1.1050 n2         1 7AS      -0.734100
     18 N14         -2.6950     0.8990     2.2460 n7         1 7AS      -0.760200
     19 C20          1.3710    -0.0010     2.4110 ca         1 7AS      -0.114500
     20 C21         -0.0080     0.0110     2.3990 ca         1 7AS      -0.091000
     21 C22          3.5590    -0.0010     1.2140 cp         1 7AS       0.026000
     22 C23          4.2540    -0.0020     2.4210 ca         1 7AS      -0.144500
     23 C24          5.6340    -0.0020     2.4200 ca         1 7AS      -0.027500
     24 C25          6.3280    -0.0030     1.2240 ca         1 7AS      -0.302500
     25 C26          5.6430    -0.0020     0.0220 ca         1 7AS      -0.027500
     26 C27          4.2630    -0.0060     0.0110 ca         1 7AS      -0.144500
     27 S28          8.0890    -0.0030     1.2300 sy         1 7AS       1.192300
     28 O29          8.4450     0.6030    -0.0050 o          1 7AS      -0.619300
     29 O30          8.4350     0.6020     2.4690 o          1 7AS      -0.619300
     30 C31          8.5420    -1.7600     1.2330 c3         1 7AS      -0.227300
     31 C32         -2.7100    -1.4150     1.4460 c3         1 7AS       0.572900
     32 F33         -2.3460    -1.8180     2.7360 f          1 7AS      -0.227633
     33 F34         -4.1040    -1.4380     1.3270 f          1 7AS      -0.227633
     34 F35         -2.1480    -2.2880     0.5090 f          1 7AS      -0.227633
     35 F36         -2.5880     2.2720     4.1990 f          1 7AS      -0.228300
     36 H1          -0.5410    -0.0000    -0.9390 ha         1 7AS       0.139000
     37 H2          -6.7680     4.9820    -0.4160 hc         1 7AS       0.082700
     38 H3          -5.7770     5.7170    -1.8330 hc         1 7AS       0.082700
     39 H4           1.9220    -0.0020    -0.9380 ha         1 7AS       0.136000
     40 H5          -3.6570     3.8530    -2.3210 h4         1 7AS      -0.038200
     41 H6          -4.1960     6.7000    -0.2170 hc         1 7AS       0.082700
     42 H7          -5.1860     5.9650     1.2000 hc         1 7AS       0.082700
     43 H8          -2.5580     0.3500     0.2280 h1         1 7AS       0.100700
     44 H9          -3.2950     5.0000     3.7230 hc         1 7AS       0.055033
     45 H10         -4.3920     4.4000     2.4720 hc         1 7AS       0.055033
     46 H11         -2.6740     3.9780     2.4200 hc         1 7AS       0.055033
     47 H12         -4.6120     2.4520     5.8460 hc         1 7AS       0.055033
     48 H13         -3.8700     4.0550     5.7440 hc         1 7AS       0.055033
     49 H14         -5.4450     3.7600     4.9930 hc         1 7AS       0.055033
     50 H15         -5.6160     2.4910     2.8550 hc         1 7AS       0.057700
     51 H16         -4.9600     1.1190     3.7580 hc         1 7AS       0.057700
     52 H17         -4.5940     0.7390     1.3770 h1         1 7AS       0.054700
     53 H18         -5.7410     3.1370     0.7960 hn         1 7AS       0.315500
     54 H19         -1.5610     4.6850    -1.7660 hn         1 7AS       0.400400
     55 H20         -2.7940     0.3860     3.1000 hn         1 7AS       0.385800
     56 H22          1.9060     0.0010     3.3530 ha         1 7AS       0.136000
     57 H23         -0.5560     0.0120     3.3340 ha         1 7AS       0.139000
     58 H24          3.7120    -0.0010     3.3590 ha         1 7AS       0.141000
     59 H25          6.1750    -0.0030     3.3590 ha         1 7AS       0.150500
     60 H26          6.1920    -0.0040    -0.9120 ha         1 7AS       0.150500
     61 H27          3.7280    -0.0060    -0.9310 ha         1 7AS       0.141000
     62 H28          9.6080    -1.8580     1.3990 h1         1 7AS       0.097367
     63 H29          8.2830    -2.2010     0.2770 h1         1 7AS       0.097367
     64 H30          8.0050    -2.2700     2.0230 h1         1 7AS       0.097367
     65 C02         -3.7950     2.9190     3.9130 c3         1 7AS       0.180300
@<TRIPOS>BOND
     1    32    31 1
     2    33    31 1
     3    34    31 1
     4    31     7 1
     5     7     8 1
     6     7    18 1
     7    20     8 ar
     8    20    19 ar
     9     9    65 1
    10    26    25 ar
    11    26    21 ar
    12     8     1 ar
    13    19     4 ar
    14    28    27 2
    15    25    24 ar
    16     1     3 ar
    17     4     3 ar
    18     4    21 1
    19    21    22 ar
    20    18    12 1
    21    12    13 1
    22    12    11 1
    23    24    27 1
    24    24    23 ar
    25     6     2 1
    26     6    16 1
    27    27    29 2
    28    27    30 1
    29    65    10 1
    30    65    11 1
    31    65    35 1
    32    15    13 1
    33    15    16 1
    34    22    23 ar
    35    13    14 2
    36     2    16 1
    37    16     5 1
    38     5    17 2
    39     1    36 1
    40     2    37 1
    41     2    38 1
    42     3    39 1
    43     5    40 1
    44     6    41 1
    45     6    42 1
    46     7    43 1
    47     9    44 1
    48     9    45 1
    49     9    46 1
    50    10    47 1
    51    10    48 1
    52    10    49 1
    53    11    50 1
    54    11    51 1
    55    12    52 1
    56    15    53 1
    57    17    54 1
    58    18    55 1
    59    19    56 1
    60    20    57 1
    61    22    58 1
    62    23    59 1
    63    25    60 1
    64    26    61 1
    65    30    62 1
    66    30    63 1
    67    30    64 1
@<TRIPOS>SUBSTRUCTURE
     1 7AS         1 TEMP              0 ****  ****    0 ROOT
