@<TRIPOS>MOLECULE
7AS
   65    67     1     0     0
SMALL
bcc


@<TRIPOS>ATOM
      1 C17          0.0000     0.0000     0.0000 ca         1 7AS      -0.065500
      2 C10         -5.8220     5.3120    -0.8290 cx         1 7AS      -0.074900
      3 C18          1.3800     0.0000     0.0000 ca         1 7AS      -0.091500
      4 C19          2.0750     0.0000     1.2070 cp         1 7AS      -0.040000
      5 C12         -3.4730     4.3510    -1.3770 c2         1 7AS       0.417200
      6 C11         -4.8400     5.9230     0.1740 cx         1 7AS      -0.074900
      7 C15         -2.2000     0.0050     1.1910 c3         1 7AS       0.122800
      8 C16         -0.6930     0.0060     1.1970 ca         1 7AS      -0.086300
      9 C01         -3.5200     4.1650     3.0710 c3         1 7AS      -0.059600
     10 C03         -4.4780     3.3270     5.2210 c3         1 7AS      -0.059600
     11 C04         -4.7090     1.9700     3.1360 c3         1 7AS      -0.054400
     12 C05         -3.9880     1.4860     1.8750 c3         1 7AS       0.032500
     13 C06         -3.7640     2.6520     0.9470 c          1 7AS       0.576100
     14 O07         -2.6420     2.9280     0.5820 o          1 7AS      -0.615100
     15 N08         -4.8110     3.3850     0.5210 ns         1 7AS      -0.148900
     16 C09         -4.5930     4.5190    -0.3820 cx         1 7AS      -0.165900
     17 N13         -2.3050     4.7960    -1.1050 n2         1 7AS      -0.579100
     18 N14         -2.6950     0.8990     2.2460 n7         1 7AS      -0.525200
     19 C20          1.3710    -0.0010     2.4110 ca         1 7AS      -0.091500
     20 C21         -0.0080     0.0110     2.3990 ca         1 7AS      -0.065500
     21 C22          3.5590    -0.0010     1.2140 cp         1 7AS       0.027000
     22 C23          4.2540    -0.0020     2.4210 ca         1 7AS      -0.134500
     23 C24          5.6340    -0.0020     2.4200 ca         1 7AS       0.006500
     24 C25          6.3280    -0.0030     1.2240 ca         1 7AS      -0.164500
     25 C26          5.6430    -0.0020     0.0220 ca         1 7AS       0.006500
     26 C27          4.2630    -0.0060     0.0110 ca         1 7AS      -0.134500
     27 S28          8.0890    -0.0030     1.2300 sy         1 7AS       0.873300
     28 O29          8.4450     0.6030    -0.0050 o          1 7AS      -0.589300
     29 O30          8.4350     0.6020     2.4690 o          1 7AS      -0.589300
     30 C31          8.5420    -1.7600     1.2330 c3         1 7AS       0.028700
     31 C32         -2.7100    -1.4150     1.4460 c3         1 7AS       0.535900
     32 F33         -2.3460    -1.8180     2.7360 f          1 7AS      -0.206967
     33 F34         -4.1040    -1.4380     1.3270 f          1 7AS      -0.206967
     34 F35         -2.1480    -2.2880     0.5090 f          1 7AS      -0.206967
     35 F36         -2.5880     2.2720     4.1990 f          1 7AS      -0.221300
     36 H1          -0.5410     0.0000    -0.9390 ha         1 7AS       0.112500
     37 H2          -5.7770     5.7170    -1.8330 hc         1 7AS       0.053450
     38 H3          -6.7680     4.9820    -0.4160 hc         1 7AS       0.053450
     39 H4           1.9220    -0.0020    -0.9380 ha         1 7AS       0.113000
     40 H5          -3.6570     3.8530    -2.3210 h4         1 7AS      -0.009200
     41 H6          -5.1850     5.9650     1.2000 hc         1 7AS       0.053450
     42 H7          -4.1950     6.7000    -0.2170 hc         1 7AS       0.053450
     43 H8          -2.5580     0.3500     0.2280 h1         1 7AS       0.077700
     44 H9          -2.6750     3.9800     2.4180 hc         1 7AS       0.028367
     45 H10         -3.2960     5.0020     3.7220 hc         1 7AS       0.028367
     46 H11         -4.3940     4.3960     2.4740 hc         1 7AS       0.028367
     47 H12         -4.6970     2.4410     5.8050 hc         1 7AS       0.028367
     48 H13         -5.3940     3.8770     5.0420 hc         1 7AS       0.028367
     49 H14         -3.7800     3.9540     5.7620 hc         1 7AS       0.028367
     50 H15         -4.9590     1.1190     3.7580 hc         1 7AS       0.033700
     51 H16         -5.6170     2.4910     2.8550 hc         1 7AS       0.033700
     52 H17         -4.5940     0.7390     1.3770 h1         1 7AS       0.036700
     53 H18         -5.7410     3.1370     0.7980 hn         1 7AS       0.174500
     54 H19         -2.1340     5.2560    -0.2330 hn         1 7AS       0.325400
     55 H20         -2.7940     0.3860     3.1000 hn         1 7AS       0.282800
     56 H22          1.9060     0.0010     3.3530 ha         1 7AS       0.113000
     57 H23         -0.5560     0.0120     3.3340 ha         1 7AS       0.112500
     58 H24          3.7120    -0.0010     3.3590 ha         1 7AS       0.118000
     59 H25          6.1750    -0.0030     3.3590 ha         1 7AS       0.122000
     60 H26          6.1920    -0.0040    -0.9120 ha         1 7AS       0.122000
     61 H27          3.7280    -0.0060    -0.9310 ha         1 7AS       0.118000
     62 H28          9.6210    -1.8550     1.2420 h1         1 7AS       0.058700
     63 H29          8.1450    -2.2360     0.3440 h1         1 7AS       0.058700
     64 H30          8.1300    -2.2380     2.1130 h1         1 7AS       0.058700
     65 C02         -3.7950     2.9190     3.9130 c3         1 7AS       0.177300
@<TRIPOS>BOND
     1     1     3 ar  
     2     1     8 ar  
     3     1    36 1   
     4     2     6 1   
     5     2    16 1   
     6     2    37 1   
     7     2    38 1   
     8     3     4 ar  
     9     3    39 1   
    10     4    19 ar  
    11     4    21 1   
    12     5    16 1   
    13     5    17 2   
    14     5    40 1   
    15     6    16 1   
    16     6    41 1   
    17     6    42 1   
    18     7     8 1   
    19     7    18 1   
    20     7    31 1   
    21     7    43 1   
    22     8    20 ar  
    23     9    44 1   
    24     9    45 1   
    25     9    46 1   
    26     9    65 1   
    27    10    47 1   
    28    10    48 1   
    29    10    49 1   
    30    10    65 1   
    31    11    12 1   
    32    11    50 1   
    33    11    51 1   
    34    11    65 1   
    35    12    13 1   
    36    12    18 1   
    37    12    52 1   
    38    13    14 2   
    39    13    15 1   
    40    15    16 1   
    41    15    53 1   
    42    17    54 1   
    43    18    55 1   
    44    19    20 ar  
    45    19    56 1   
    46    20    57 1   
    47    21    22 ar  
    48    21    26 ar  
    49    22    23 ar  
    50    22    58 1   
    51    23    24 ar  
    52    23    59 1   
    53    24    25 ar  
    54    24    27 1   
    55    25    26 ar  
    56    25    60 1   
    57    26    61 1   
    58    27    28 2   
    59    27    29 2   
    60    27    30 1   
    61    30    62 1   
    62    30    63 1   
    63    30    64 1   
    64    31    32 1   
    65    31    33 1   
    66    31    34 1   
    67    35    65 1   
@<TRIPOS>SUBSTRUCTURE
     1 7AS         1 TEMP              0 ****  ****    0 ROOT
