@<TRIPOS>MOLECULE
7AU
   56    60     1     0     0
SMALL
bcc


@<TRIPOS>ATOM
      1 CAY          0.0000     0.0000     0.0000 c3         1 7AU       0.135800
      2 CAZ          1.5310     0.0000     0.0000 c3         1 7AU       0.144800
      3 NBA          2.0180     0.0000     1.3870 n7         1 7AU      -0.585200
      4 CBB          1.5300     1.1810     2.1130 c3         1 7AU       0.144800
      5 CBC         -0.0000     1.1820     2.1120 c3         1 7AU       0.135800
      6 NAX         -0.4870     1.1820     0.7270 nh         1 7AU      -0.362000
      7 CAU         -1.8800     1.2550     0.6850 ca         1 7AU       0.031600
      8 CAV         -2.5390     2.3040     1.3160 ca         1 7AU      -0.150000
      9 CAW         -3.9140     2.3790     1.2780 ca         1 7AU      -0.059500
     10 CAT         -2.6060     0.2800     0.0080 ca         1 7AU      -0.150000
     11 CAS         -3.9810     0.3490    -0.0350 ca         1 7AU      -0.059500
     12 CAR         -4.6470     1.4000     0.6030 ca         1 7AU      -0.058800
     13 CAH         -6.1200     1.4770     0.5600 cc         1 7AU      -0.150300
     14 NAG         -6.9810     0.4810     0.9530 na         1 7AU       0.316900
     15 CBD         -6.5700    -0.8220     1.4820 c3         1 7AU      -0.021400
     16 CAF         -8.2860     0.8830     0.7810 ca         1 7AU       0.252800
     17 NAD         -9.4480     0.2830     1.0070 nb         1 7AU      -0.581000
     18 CAC        -10.5960     0.8760     0.7520 ca         1 7AU       0.423200
     19 CAB        -10.6500     2.1600     0.2340 ca         1 7AU      -0.255300
     20 CAA         -9.4700     2.8370    -0.0230 ca         1 7AU       0.043400
     21 Cl1         -9.4880     4.4480    -0.6710 cl         1 7AU      -0.000400
     22 CAE         -8.2650     2.1870     0.2550 ca         1 7AU      -0.203100
     23 CAI         -6.8500     2.5610     0.1230 cd         1 7AU      -0.066400
     24 CAJ         -6.3160     3.8440    -0.3870 ca         1 7AU       0.001200
     25 CAK         -5.6200     3.8830    -1.5950 ca         1 7AU      -0.097000
     26 CAL         -5.1240     5.0800    -2.0650 ca         1 7AU      -0.078000
     27 CAO         -6.5110     5.0210     0.3370 ca         1 7AU      -0.097000
     28 CAN         -6.0100     6.2140    -0.1430 ca         1 7AU      -0.078000
     29 CAM         -5.3170     6.2440    -1.3400 ca         1 7AU      -0.111300
     30 CAP         -4.7720     7.5500    -1.8580 c3         1 7AU       0.284700
     31 OAQ         -5.7550     8.1820    -2.6800 oh         1 7AU      -0.586800
     32 H1          -0.3600    -0.8970     0.4890 h1         1 7AU       0.024700
     33 H2          -0.3600     0.0310    -1.0210 h1         1 7AU       0.024700
     34 H3           1.8910    -0.8860    -0.5080 h1         1 7AU       0.012700
     35 H4           1.8910     0.8860    -0.5080 h1         1 7AU       0.012700
     36 H5           3.0190    -0.0040     1.3890 hn         1 7AU       0.255800
     37 H7           1.8910     2.0790     1.6260 h1         1 7AU       0.012700
     38 H8           1.8890     1.1490     3.1350 h1         1 7AU       0.012700
     39 H9          -0.3600     2.0680     2.6210 h1         1 7AU       0.024700
     40 H10         -0.3610     0.2960     2.6200 h1         1 7AU       0.024700
     41 H11         -1.9700     3.0630     1.8400 ha         1 7AU       0.121000
     42 H12         -4.4260     3.1960     1.7720 ha         1 7AU       0.111000
     43 H13         -2.0890    -0.5340    -0.4860 ha         1 7AU       0.121000
     44 H14         -4.5460    -0.4110    -0.5610 ha         1 7AU       0.111000
     45 H15         -6.2790    -1.4690     0.6630 h1         1 7AU       0.026033
     46 H16         -7.3970    -1.2710     2.0190 h1         1 7AU       0.026033
     47 H17         -5.7310    -0.6910     2.1540 h1         1 7AU       0.026033
     48 H18        -11.5200     0.3480     0.9530 h4         1 7AU      -0.020900
     49 H19        -11.6050     2.6290     0.0320 ha         1 7AU       0.124000
     50 H20         -5.4690     2.9730    -2.1630 ha         1 7AU       0.110000
     51 H21         -4.5820     5.1110    -3.0020 ha         1 7AU       0.105000
     52 H22         -7.0540     4.9980     1.2750 ha         1 7AU       0.110000
     53 H23         -6.1590     7.1280     0.4180 ha         1 7AU       0.105000
     54 H24         -3.8790     7.3630    -2.4420 h1         1 7AU      -0.014800
     55 H25         -4.5290     8.1970    -1.0240 h1         1 7AU      -0.014800
     56 H26         -5.4150     9.0000    -3.0050 ho         1 7AU       0.386000
@<TRIPOS>BOND
     1     1     2 1   
     2     1     6 1   
     3     1    32 1   
     4     1    33 1   
     5     2     3 1   
     6     2    34 1   
     7     2    35 1   
     8     3     4 1   
     9     3    36 1   
    10     4     5 1   
    11     4    37 1   
    12     4    38 1   
    13     5     6 1   
    14     5    39 1   
    15     5    40 1   
    16     6     7 1   
    17     7     8 ar  
    18     7    10 ar  
    19     8     9 ar  
    20     8    41 1   
    21     9    12 ar  
    22     9    42 1   
    23    10    11 ar  
    24    10    43 1   
    25    11    12 ar  
    26    11    44 1   
    27    12    13 1   
    28    13    14 1   
    29    13    23 2   
    30    14    15 1   
    31    14    16 1   
    32    15    45 1   
    33    15    46 1   
    34    15    47 1   
    35    16    17 ar  
    36    16    22 ar  
    37    17    18 ar  
    38    18    19 ar  
    39    18    48 1   
    40    19    20 ar  
    41    19    49 1   
    42    20    21 1   
    43    20    22 ar  
    44    22    23 1   
    45    23    24 1   
    46    24    25 ar  
    47    24    27 ar  
    48    25    26 ar  
    49    25    50 1   
    50    26    29 ar  
    51    26    51 1   
    52    27    28 ar  
    53    27    52 1   
    54    28    29 ar  
    55    28    53 1   
    56    29    30 1   
    57    30    31 1   
    58    30    54 1   
    59    30    55 1   
    60    31    56 1   
@<TRIPOS>SUBSTRUCTURE
     1 7AU         1 TEMP              0 ****  ****    0 ROOT
