@<TRIPOS>MOLECULE
molecule
   56    60     1     0     0
SMALL
bcc


@<TRIPOS>ATOM
      1 CAY          0.0000     0.0000     0.0000 c3         1 7AU       0.165800
      2 CAZ          1.5310     0.0000     0.0000 c3         1 7AU       0.154800
      3 NBA          2.0180     0.0000     1.3870 n7         1 7AU      -0.822200
      4 CBB          1.5300     1.1810     2.1130 c3         1 7AU       0.154800
      5 CBC         -0.0000     1.1820     2.1120 c3         1 7AU       0.165800
      6 NAX         -0.4870     1.1820     0.7270 nh         1 7AU      -0.598000
      7 CAU         -1.8800     1.2550     0.6850 ca         1 7AU       0.118600
      8 CAV         -2.5390     2.3040     1.3160 ca         1 7AU      -0.172500
      9 CAW         -3.9140     2.3790     1.2780 ca         1 7AU      -0.079000
     10 CAT         -2.6060     0.2800     0.0080 ca         1 7AU      -0.172500
     11 CAS         -3.9810     0.3490    -0.0350 ca         1 7AU      -0.079000
     12 CAR         -4.6470     1.4000     0.6030 ca         1 7AU      -0.076800
     13 CAH         -6.1200     1.4770     0.5600 cc         1 7AU       0.029700
     14 NAG         -6.9810     0.4810     0.9530 na         1 7AU      -0.160100
     15 CBD         -6.5700    -0.8220     1.4820 c3         1 7AU       0.038600
     16 CAF         -8.2860     0.8830     0.7810 ca         1 7AU       0.478800
     17 NAD         -9.4480     0.2830     1.0070 nb         1 7AU      -0.715000
     18 CAC        -10.5960     0.8760     0.7520 ca         1 7AU       0.453200
     19 CAB        -10.6500     2.1600     0.2340 ca         1 7AU      -0.283300
     20 CAA         -9.4700     2.8370    -0.0230 ca         1 7AU       0.106400
     21 Cl1         -9.4880     4.4480    -0.6710 cl         1 7AU      -0.083400
     22 CAE         -8.2650     2.1870     0.2550 ca         1 7AU      -0.203100
     23 CAI         -6.8500     2.5610     0.1230 cd         1 7AU      -0.081400
     24 CAJ         -6.3160     3.8440    -0.3870 ca         1 7AU      -0.008800
     25 CAK         -5.6200     3.8830    -1.5950 ca         1 7AU      -0.113500
     26 CAL         -5.1240     5.0800    -2.0650 ca         1 7AU      -0.110500
     27 CAO         -6.5110     5.0210     0.3370 ca         1 7AU      -0.113500
     28 CAN         -6.0100     6.2140    -0.1430 ca         1 7AU      -0.110500
     29 CAM         -5.3170     6.2440    -1.3400 ca         1 7AU      -0.088300
     30 CAP         -4.7720     7.5500    -1.8580 c3         1 7AU       0.188700
     31 OAQ         -5.7550     8.1820    -2.6800 oh         1 7AU      -0.602800
     32 H1          -0.3600    -0.8970     0.4890 h1         1 7AU       0.050700
     33 H2          -0.3600     0.0310    -1.0210 h1         1 7AU       0.050700
     34 H3           1.8910    -0.8860    -0.5080 h1         1 7AU       0.041950
     35 H4           1.8910     0.8860    -0.5080 h1         1 7AU       0.041950
     36 H5           3.0190    -0.0040     1.3890 hn         1 7AU       0.357800
     37 H7           1.8910     2.0790     1.6260 h1         1 7AU       0.041950
     38 H8           1.8890     1.1490     3.1350 h1         1 7AU       0.041950
     39 H9          -0.3600     2.0680     2.6210 h1         1 7AU       0.050700
     40 H10         -0.3610     0.2960     2.6200 h1         1 7AU       0.050700
     41 H11         -1.9700     3.0630     1.8400 ha         1 7AU       0.140500
     42 H12         -4.4260     3.1960     1.7720 ha         1 7AU       0.140000
     43 H13         -2.0890    -0.5340    -0.4860 ha         1 7AU       0.140500
     44 H14         -4.5460    -0.4110    -0.5610 ha         1 7AU       0.140000
     45 H15         -6.2790    -1.4690     0.6630 h1         1 7AU       0.056033
     46 H16         -7.3970    -1.2710     2.0190 h1         1 7AU       0.056033
     47 H17         -5.7310    -0.6910     2.1540 h1         1 7AU       0.056033
     48 H18        -11.5200     0.3480     0.9530 h4         1 7AU       0.028100
     49 H19        -11.6050     2.6290     0.0320 ha         1 7AU       0.150000
     50 H20         -5.4690     2.9730    -2.1630 ha         1 7AU       0.137000
     51 H21         -4.5820     5.1110    -3.0020 ha         1 7AU       0.131500
     52 H22         -7.0540     4.9980     1.2750 ha         1 7AU       0.137000
     53 H23         -6.1590     7.1280     0.4180 ha         1 7AU       0.131500
     54 H24         -3.8790     7.3630    -2.4420 h1         1 7AU       0.023200
     55 H25         -4.5290     8.1970    -1.0240 h1         1 7AU       0.023200
     56 H26         -5.4150     9.0000    -3.0050 ho         1 7AU       0.399000
@<TRIPOS>BOND
     1    18    19 ar
     2    18    17 ar
     3    19    20 ar
     4    17    16 ar
     5    20    21 1
     6    20    22 ar
     7    16    22 ar
     8    16    14 1
     9    22    23 1
    10    15    14 1
    11    14    13 1
    12    23    13 2
    13    23    24 1
    14    13    12 1
    15    25    24 ar
    16    25    26 ar
    17    24    27 ar
    18    12    11 ar
    19    12     9 ar
    20    26    29 ar
    21    27    28 ar
    22    11    10 ar
    23     9     8 ar
    24    29    28 ar
    25    29    30 1
    26    10     7 ar
    27    30    31 1
    28     8     7 ar
    29     7     6 1
    30     6     1 1
    31     6     5 1
    32     1     2 1
    33     5     4 1
    34     2     3 1
    35     3     4 1
    36     1    32 1
    37     1    33 1
    38     2    34 1
    39     2    35 1
    40     3    36 1
    41     4    37 1
    42     4    38 1
    43     5    39 1
    44     5    40 1
    45     8    41 1
    46     9    42 1
    47    10    43 1
    48    11    44 1
    49    15    45 1
    50    15    46 1
    51    15    47 1
    52    18    48 1
    53    19    49 1
    54    25    50 1
    55    26    51 1
    56    27    52 1
    57    28    53 1
    58    30    54 1
    59    30    55 1
    60    31    56 1
@<TRIPOS>SUBSTRUCTURE
     1 7AU         1 TEMP              0 ****  ****    0 ROOT
