@<TRIPOS>MOLECULE
7AV
   55    59     1     0     0
SMALL
bcc


@<TRIPOS>ATOM
      1 C1           0.0000     0.0000     0.0000 ca         1 7AV      -0.027000
      2 C2           1.3940     0.0000     0.0000 ca         1 7AV      -0.154500
      3 C3           2.0820     0.0000     1.2120 ca         1 7AV      -0.070000
      4 C12         -1.5410    -0.1250     5.8430 ca         1 7AV      -0.196600
      5 C13         -2.8980    -0.0810     5.5180 ca         1 7AV      -0.117000
      6 C14         -3.8460    -0.1960     6.5130 ca         1 7AV      -0.151000
      7 C15         -3.4580    -0.3560     7.8330 ca         1 7AV      -0.029000
      8 C16         -2.1200    -0.4010     8.1670 ca         1 7AV      -0.229000
      9 C17         -1.1520    -0.2930     7.1790 ca         1 7AV       0.215100
     10 C18          2.1410    -0.0000    -1.2820 cc         1 7AV       0.452800
     11 C19          3.4800    -0.1000    -1.3340 cd         1 7AV      -0.161400
     12 C21          2.2870     0.0850    -3.5160 cd         1 7AV       0.594300
     13 C24          2.8000     0.1510    -5.9300 c3         1 7AV       0.189100
     14 C26          0.4840    -0.4980     8.8890 c3         1 7AV       0.251700
     15 C27          1.9810    -0.5270     9.0590 ca         1 7AV      -0.106300
     16 C28          2.6740     0.6500     9.2730 ca         1 7AV      -0.061000
     17 C29          4.0470     0.6260     9.4290 ca         1 7AV      -0.103000
     18 C30          4.7280    -0.5780     9.3700 ca         1 7AV      -0.023600
     19 C4           1.3870    -0.0000     2.4000 ca         1 7AV      -0.113000
     20 C5          -0.6900     0.0000     1.1930 ca         1 7AV      -0.160300
     21 C6          -0.0100    -0.0010     2.4020 ca         1 7AV      -0.065400
     22 N7          -0.8920    -0.0010     3.4880 n          1 7AV       0.019000
     23 C8          -2.2770    -0.0010     3.0110 c3         1 7AV       0.009000
     24 C9          -2.1760     0.0060     1.4770 c3         1 7AV       0.040900
     25 C10         -0.5210    -0.0020     4.7840 c          1 7AV       0.612700
     26 O11          0.6540     0.0990     5.0800 o          1 7AV      -0.614100
     27 S20          3.9720    -0.0640    -3.0250 ss         1 7AV      -0.369300
     28 N22          1.5310     0.0930    -2.4630 nc         1 7AV      -0.670000
     29 N23          1.8390     0.1770    -4.8230 nu         1 7AV      -0.468900
     30 O25          0.1640    -0.3380     7.5050 os         1 7AV      -0.253900
     31 C31          4.0340    -1.7550     9.1550 ca         1 7AV      -0.103000
     32 C32          2.6590    -1.7290     9.0050 ca         1 7AV      -0.061000
     33 Cl3          6.4530    -0.6090     9.5570 cl         1 7AV      -0.029400
     34 H1          -0.5410    -0.0000    -0.9380 ha         1 7AV       0.121000
     35 H2           3.1660     0.0000     1.2190 ha         1 7AV       0.109000
     36 H3          -3.2060     0.0470     4.4880 ha         1 7AV       0.156000
     37 H4          -4.8990    -0.1620     6.2610 ha         1 7AV       0.107000
     38 H5          -4.2100    -0.4440     8.6080 ha         1 7AV       0.100000
     39 H6          -1.8240    -0.5290     9.2020 ha         1 7AV       0.124000
     40 H7           4.1440    -0.1880    -0.4820 h4         1 7AV       0.168000
     41 H8           3.4880     0.9820    -5.8310 h1         1 7AV       0.012367
     42 H9           2.2690     0.2320    -6.8710 h1         1 7AV       0.012367
     43 H10          3.3520    -0.7800    -5.9070 h1         1 7AV       0.012367
     44 H11          0.0610    -1.4280     9.2520 h1         1 7AV       0.004200
     45 H12          0.0720     0.3300     9.4540 h1         1 7AV       0.004200
     46 H13          2.1400     1.5920     9.3200 ha         1 7AV       0.109500
     47 H14          4.5900     1.5480     9.5970 ha         1 7AV       0.115000
     48 H15          1.9270    -0.0000     3.3400 ha         1 7AV       0.148000
     49 H16         -2.7740    -0.9060     3.3380 h1         1 7AV       0.038200
     50 H17         -2.7760     0.9000     3.3460 h1         1 7AV       0.038200
     51 H18         -2.6410    -0.8820     1.0660 hc         1 7AV       0.027200
     52 H19         -2.6330     0.9010     1.0740 hc         1 7AV       0.027200
     53 H20          0.8600     0.2620    -5.0120 hn         1 7AV       0.298800
     54 H21          4.5660    -2.6980     9.1100 ha         1 7AV       0.115000
     55 H22          2.1150    -2.6510     8.8360 ha         1 7AV       0.109500
@<TRIPOS>BOND
     1     1     2 ar  
     2     1    20 ar  
     3     1    34 1   
     4     2     3 ar  
     5     2    10 1   
     6     3    19 ar  
     7     3    35 1   
     8     4     5 ar  
     9     4     9 ar  
    10     4    25 1   
    11     5     6 ar  
    12     5    36 1   
    13     6     7 ar  
    14     6    37 1   
    15     7     8 ar  
    16     7    38 1   
    17     8     9 ar  
    18     8    39 1   
    19     9    30 1   
    20    10    11 2   
    21    10    28 1   
    22    11    27 1   
    23    11    40 1   
    24    12    27 1   
    25    12    28 2   
    26    12    29 1   
    27    13    29 1   
    28    13    41 1   
    29    13    42 1   
    30    13    43 1   
    31    14    15 1   
    32    14    30 1   
    33    14    44 1   
    34    14    45 1   
    35    15    16 ar  
    36    15    32 ar  
    37    16    17 ar  
    38    16    46 1   
    39    17    18 ar  
    40    17    47 1   
    41    18    31 ar  
    42    18    33 1   
    43    19    21 ar  
    44    19    48 1   
    45    20    21 ar  
    46    20    24 1   
    47    21    22 1   
    48    22    23 1   
    49    22    25 1   
    50    23    24 1   
    51    23    49 1   
    52    23    50 1   
    53    24    51 1   
    54    24    52 1   
    55    25    26 2   
    56    29    53 1   
    57    31    32 ar  
    58    31    54 1   
    59    32    55 1   
@<TRIPOS>SUBSTRUCTURE
     1 7AV         1 TEMP              0 ****  ****    0 ROOT
