@<TRIPOS>MOLECULE
molecule
   93    95     1     0     0
SMALL
bcc


@<TRIPOS>ATOM
      1 O38          0.0000     0.0000     0.0000 o          1 7AW      -0.614000
      2 C37          1.2150     0.0000     0.0000 c          1 7AW       0.749100
      3 O39          1.8880     0.0000     1.1660 os         1 7AW      -0.441900
      4 C40          1.0980    -0.0010     2.3840 c3         1 7AW       0.254700
      5 C41          2.0150    -0.0010     3.5790 cc         1 7AW      -0.162700
      6 S45          2.6470    -1.4270     4.4000 ss         1 7AW      -0.196300
      7 C44          3.4910    -0.4270     5.5020 cc         1 7AW       0.450300
      8 N43          3.2800     0.8150     5.2270 nd         1 7AW      -0.682000
      9 C42          2.4980     1.0800     4.2000 cd         1 7AW       0.391200
     10 N36          1.8890    -0.0050    -1.1670 ns         1 7AW      -0.567900
     11 C04          1.1570    -0.0110    -2.4360 c3         1 7AW       0.130700
     12 C03          0.7930     1.4250    -2.8210 c3         1 7AW      -0.098400
     13 C02         -0.1840     1.9960    -1.7920 c3         1 7AW      -0.080400
     14 C01         -0.5480     3.4320    -2.1770 c3         1 7AW      -0.094100
     15 C05          2.0340    -0.6250    -3.5280 c3         1 7AW      -0.096400
     16 C06          2.2950    -2.0980    -3.2050 c3         1 7AW      -0.097400
     17 C07          3.1730    -2.7130    -4.2970 c3         1 7AW       0.117700
     18 C08          3.3300    -4.2120    -4.0410 c3         1 7AW      -0.051100
     19 C09          4.0910    -4.8390    -5.1810 ca         1 7AW      -0.070300
     20 C14          5.4690    -4.9200    -5.1310 ca         1 7AW      -0.118000
     21 C13          6.1670    -5.4950    -6.1770 ca         1 7AW      -0.118500
     22 C12          5.4860    -5.9880    -7.2730 ca         1 7AW      -0.129000
     23 C11          4.1070    -5.9080    -7.3240 ca         1 7AW      -0.118500
     24 C10          3.4090    -5.3380    -6.2750 ca         1 7AW      -0.118000
     25 N15          4.4900    -2.0720    -4.2820 ns         1 7AW      -0.581900
     26 C16          5.2420    -2.0530    -5.4000 c          1 7AW       0.651100
     27 O17          4.8280    -2.5650    -6.4190 o          1 7AW      -0.601100
     28 C18          6.5980    -1.3940    -5.3850 c3         1 7AW       0.066700
     29 C33          6.4440     0.0820    -5.0170 c3         1 7AW      -0.087700
     30 C35          7.8210     0.7500    -5.0020 c3         1 7AW      -0.090100
     31 C34          5.5530     0.7740    -6.0500 c3         1 7AW      -0.090100
     32 N19          7.2110    -1.5070    -6.7120 ns         1 7AW      -0.584900
     33 C20          8.5520    -1.4680    -6.8400 c          1 7AW       0.789100
     34 O21          9.2530    -1.3410    -5.8560 o          1 7AW      -0.651100
     35 N22          9.1150    -1.5710    -8.0610 n          1 7AW      -0.506800
     36 C23          8.2690    -1.7250    -9.2460 c3         1 7AW       0.090300
     37 C24         10.5730    -1.5290    -8.2000 c3         1 7AW       0.105700
     38 C25         11.1270    -2.9270    -8.1030 cc         1 7AW       0.352600
     39 N32         11.3960    -3.5090    -6.9530 nc         1 7AW      -0.654000
     40 C28         11.8670    -4.7100    -6.9970 cd         1 7AW       0.459700
     41 C29         12.2350    -5.5370    -5.7920 c3         1 7AW      -0.098000
     42 C31         11.3960    -6.8160    -5.7760 c3         1 7AW      -0.090600
     43 C30         13.7190    -5.9010    -5.8580 c3         1 7AW      -0.090600
     44 S27         12.0140    -5.2260    -8.6210 ss         1 7AW      -0.224300
     45 C26         11.3800    -3.6800    -9.1780 cd         1 7AW      -0.190400
     46 H1           0.4720    -0.8850     2.4080 h1         1 7AW       0.065200
     47 H2           0.4730     0.8840     2.4090 h1         1 7AW       0.065200
     48 H3           4.1120    -0.7860     6.3140 h5         1 7AW       0.064100
     49 H4           2.2600     2.0900     3.8890 h4         1 7AW       0.049100
     50 H5           2.8890     0.0190    -1.1660 hn         1 7AW       0.321500
     51 H6           0.2520    -0.5960    -2.3280 h1         1 7AW       0.083700
     52 H7           0.3310     1.4300    -3.8000 hc         1 7AW       0.046700
     53 H8           1.6900     2.0310    -2.8420 hc         1 7AW       0.046700
     54 H9          -1.0820     1.3900    -1.7710 hc         1 7AW       0.055200
     55 H10          0.2780     1.9920    -0.8130 hc         1 7AW       0.055200
     56 H11          0.3440     4.0450    -2.1700 hc         1 7AW       0.031367
     57 H12         -0.9840     3.4400    -3.1690 hc         1 7AW       0.031367
     58 H13         -1.2630     3.8260    -1.4650 hc         1 7AW       0.031367
     59 H14          2.9770    -0.0940    -3.5750 hc         1 7AW       0.056700
     60 H15          1.5290    -0.5490    -4.4830 hc         1 7AW       0.056700
     61 H16          1.3520    -2.6290    -3.1580 hc         1 7AW       0.054700
     62 H17          2.8000    -2.1740    -2.2500 hc         1 7AW       0.054700
     63 H18          2.7080    -2.5590    -5.2640 h1         1 7AW       0.084700
     64 H19          3.8740    -4.3660    -3.1160 hc         1 7AW       0.052200
     65 H20          2.3520    -4.6700    -3.9650 hc         1 7AW       0.052200
     66 H21          6.0030    -4.5330    -4.2710 ha         1 7AW       0.123000
     67 H22          7.2480    -5.5580    -6.1370 ha         1 7AW       0.127000
     68 H23          6.0340    -6.4370    -8.0940 ha         1 7AW       0.124000
     69 H24          3.5720    -6.2970    -8.1820 ha         1 7AW       0.127000
     70 H25          2.3280    -5.2750    -6.3150 ha         1 7AW       0.123000
     71 H26          4.8480    -1.6830    -3.4320 hn         1 7AW       0.313500
     72 H27          7.2290    -1.8840    -4.6530 h1         1 7AW       0.093700
     73 H28          5.9910     0.1650    -4.0370 hc         1 7AW       0.041700
     74 H29          7.7510     1.7090    -4.5040 hc         1 7AW       0.041867
     75 H30          8.1630     0.8960    -6.0200 hc         1 7AW       0.041867
     76 H31          8.5230     0.1170    -4.4730 hc         1 7AW       0.041867
     77 H32          5.4410     1.8190    -5.7880 hc         1 7AW       0.041867
     78 H33          6.0080     0.6950    -7.0300 hc         1 7AW       0.041867
     79 H34          4.5800     0.2990    -6.0650 hc         1 7AW       0.041867
     80 H35          6.6350    -1.6430    -7.5190 hn         1 7AW       0.333500
     81 H36          7.7070    -2.6480    -9.1720 h1         1 7AW       0.039367
     82 H37          8.8910    -1.7510   -10.1330 h1         1 7AW       0.039367
     83 H38          7.5820    -0.8890    -9.3110 h1         1 7AW       0.039367
     84 H39         10.9940    -0.9180    -7.4110 h1         1 7AW       0.072700
     85 H40         10.8310    -1.1040    -9.1630 h1         1 7AW       0.072700
     86 H41         12.0420    -4.9680    -4.8910 hc         1 7AW       0.086700
     87 H42         10.3460    -6.5580    -5.7180 hc         1 7AW       0.041033
     88 H43         11.5800    -7.3800    -6.6830 hc         1 7AW       0.041033
     89 H44         11.6690    -7.4160    -4.9170 hc         1 7AW       0.041033
     90 H45         14.3080    -4.9980    -5.9570 hc         1 7AW       0.041033
     91 H46         13.8960    -6.5440    -6.7120 hc         1 7AW       0.041033
     92 H47         14.0040    -6.4210    -4.9510 hc         1 7AW       0.041033
     93 H48         11.2280    -3.3890   -10.2110 h4         1 7AW       0.175000
@<TRIPOS>BOND
     1    37    38 1   
     2    37    35 1   
     3    38    45 2   
     4    38    39 1   
     5    42    41 1   
     6    45    44 1   
     7    39    40 2   
     8    35    33 1   
     9    35    36 1   
    10    34    33 2   
    11    40    44 1   
    12    40    41 1   
    13    33    32 1   
    14    41    43 1   
    15    32    28 1   
    16    23    22 ar  
    17    23    24 ar  
    18     7     8 2   
    19     7     6 1   
    20    22    21 ar  
    21    24    19 ar  
    22    31    29 1   
    23     8     9 1   
    24    28    29 1   
    25    28    26 1   
    26    27    26 2   
    27     6     5 1   
    28    29    30 1   
    29    21    20 ar  
    30    19    20 ar  
    31    19    18 1   
    32    26    25 1   
    33     9     5 2   
    34    18    17 1   
    35     5     4 1   
    36    25    17 1   
    37    17    16 1   
    38     3     4 1   
    39     3     2 1   
    40    16    15 1   
    41    10     2 1   
    42    10    11 1   
    43     2     1 2   
    44    11    15 1   
    45    11    12 1   
    46    13    12 1   
    47    13    14 1   
    48     4    46 1   
    49     4    47 1   
    50     7    48 1   
    51     9    49 1   
    52    10    50 1   
    53    11    51 1   
    54    12    52 1   
    55    12    53 1   
    56    13    54 1   
    57    13    55 1   
    58    14    56 1   
    59    14    57 1   
    60    14    58 1   
    61    15    59 1   
    62    15    60 1   
    63    16    61 1   
    64    16    62 1   
    65    17    63 1   
    66    18    64 1   
    67    18    65 1   
    68    20    66 1   
    69    21    67 1   
    70    22    68 1   
    71    23    69 1   
    72    24    70 1   
    73    25    71 1   
    74    28    72 1   
    75    29    73 1   
    76    30    74 1   
    77    30    75 1   
    78    30    76 1   
    79    31    77 1   
    80    31    78 1   
    81    31    79 1   
    82    32    80 1   
    83    36    81 1   
    84    36    82 1   
    85    36    83 1   
    86    37    84 1   
    87    37    85 1   
    88    41    86 1   
    89    42    87 1   
    90    42    88 1   
    91    42    89 1   
    92    43    90 1   
    93    43    91 1   
    94    43    92 1   
    95    45    93 1   
@<TRIPOS>SUBSTRUCTURE
     1 7AW         1 TEMP              0 ****  ****    0 ROOT
