@<TRIPOS>MOLECULE
7AW
   93    95     1     0     0
SMALL
bcc


@<TRIPOS>ATOM
      1 O38          0.0000     0.0000     0.0000 o          1 7AW      -0.659000
      2 C37          1.2150     0.0000     0.0000 c          1 7AW       0.681100
      3 O39          1.8880     0.0000     1.1660 os         1 7AW      -0.424900
      4 C40          1.0980    -0.0010     2.3840 c3         1 7AW       0.348700
      5 C41          2.0150    -0.0010     3.5790 cc         1 7AW      -0.134700
      6 S45          2.6470    -1.4270     4.4000 ss         1 7AW      -0.301300
      7 C44          3.4910    -0.4270     5.5020 cc         1 7AW       0.478300
      8 N43          3.2800     0.8150     5.2270 nd         1 7AW      -0.568000
      9 C42          2.4980     1.0800     4.2000 cd         1 7AW       0.378200
     10 N36          1.8890    -0.0050    -1.1670 ns         1 7AW      -0.167900
     11 C04          1.1570    -0.0110    -2.4360 c3         1 7AW       0.026700
     12 C03          0.7930     1.4250    -2.8210 c3         1 7AW      -0.045400
     13 C02         -0.1840     1.9960    -1.7920 c3         1 7AW      -0.044400
     14 C01         -0.5480     3.4320    -2.1770 c3         1 7AW       0.006900
     15 C05          2.0340    -0.6250    -3.5280 c3         1 7AW      -0.045400
     16 C06          2.2950    -2.0980    -3.2050 c3         1 7AW      -0.045400
     17 C07          3.1730    -2.7130    -4.2970 c3         1 7AW       0.018700
     18 C08          3.3300    -4.2120    -4.0410 c3         1 7AW       0.015900
     19 C09          4.0910    -4.8390    -5.1810 ca         1 7AW      -0.080300
     20 C14          5.4690    -4.9200    -5.1310 ca         1 7AW      -0.093000
     21 C13          6.1670    -5.4950    -6.1770 ca         1 7AW      -0.091500
     22 C12          5.4860    -5.9880    -7.2730 ca         1 7AW      -0.101000
     23 C11          4.1070    -5.9080    -7.3240 ca         1 7AW      -0.091500
     24 C10          3.4090    -5.3380    -6.2750 ca         1 7AW      -0.093000
     25 N15          4.4900    -2.0720    -4.2820 ns         1 7AW      -0.190900
     26 C16          5.2420    -2.0530    -5.4000 c          1 7AW       0.569100
     27 O17          4.8280    -2.5650    -6.4190 o          1 7AW      -0.642100
     28 C18          6.5980    -1.3940    -5.3850 c3         1 7AW      -0.036300
     29 C33          6.4440     0.0820    -5.0170 c3         1 7AW      -0.060700
     30 C35          7.8210     0.7500    -5.0020 c3         1 7AW      -0.012100
     31 C34          5.5530     0.7740    -6.0500 c3         1 7AW      -0.012100
     32 N19          7.2110    -1.5070    -6.7120 ns         1 7AW      -0.202900
     33 C20          8.5520    -1.4680    -6.8400 c          1 7AW       0.595100
     34 O21          9.2530    -1.3410    -5.8560 o          1 7AW      -0.698100
     35 N22          9.1150    -1.5710    -8.0610 n          1 7AW      -0.178800
     36 C23          8.2690    -1.7250    -9.2460 c3         1 7AW       0.076300
     37 C24         10.5730    -1.5290    -8.2000 c3         1 7AW       0.048700
     38 C25         11.1270    -2.9270    -8.1030 cc         1 7AW       0.301600
     39 N32         11.3960    -3.5090    -6.9530 nc         1 7AW      -0.519000
     40 C28         11.8670    -4.7100    -6.9970 cd         1 7AW       0.436700
     41 C29         12.2350    -5.5370    -5.7920 c3         1 7AW      -0.064000
     42 C31         11.3960    -6.8160    -5.7760 c3         1 7AW       0.000400
     43 C30         13.7190    -5.9010    -5.8580 c3         1 7AW       0.000400
     44 S27         12.0140    -5.2260    -8.6210 ss         1 7AW      -0.315300
     45 C26         11.3800    -3.6800    -9.1780 cd         1 7AW      -0.118400
     46 H1           0.4720    -0.8850     2.4080 h1         1 7AW       0.021700
     47 H2           0.4730     0.8840     2.4090 h1         1 7AW       0.021700
     48 H3           4.1120    -0.7860     6.3140 h5         1 7AW       0.025100
     49 H4           2.2600     2.0900     3.8890 h4         1 7AW       0.005100
     50 H5           2.8890     0.0190    -1.1660 hn         1 7AW       0.175500
     51 H6           0.2520    -0.5960    -2.3280 h1         1 7AW       0.063700
     52 H7           0.3310     1.4300    -3.8000 hc         1 7AW       0.019700
     53 H8           1.6900     2.0310    -2.8420 hc         1 7AW       0.019700
     54 H9          -1.0820     1.3900    -1.7710 hc         1 7AW       0.032200
     55 H10          0.2780     1.9920    -0.8130 hc         1 7AW       0.032200
     56 H11          0.3440     4.0450    -2.1700 hc         1 7AW      -0.000967
     57 H12         -0.9840     3.4400    -3.1690 hc         1 7AW      -0.000967
     58 H13         -1.2630     3.8260    -1.4650 hc         1 7AW      -0.000967
     59 H14          2.9770    -0.0940    -3.5750 hc         1 7AW       0.028700
     60 H15          1.5290    -0.5490    -4.4830 hc         1 7AW       0.028700
     61 H16          1.3520    -2.6290    -3.1580 hc         1 7AW       0.027200
     62 H17          2.8000    -2.1740    -2.2500 hc         1 7AW       0.027200
     63 H18          2.7080    -2.5590    -5.2640 h1         1 7AW       0.064700
     64 H19          3.8740    -4.3660    -3.1160 hc         1 7AW       0.023700
     65 H20          2.3520    -4.6700    -3.9650 hc         1 7AW       0.023700
     66 H21          6.0030    -4.5330    -4.2710 ha         1 7AW       0.099500
     67 H22          7.2480    -5.5580    -6.1370 ha         1 7AW       0.100500
     68 H23          6.0340    -6.4370    -8.0940 ha         1 7AW       0.099000
     69 H24          3.5720    -6.2970    -8.1820 ha         1 7AW       0.100500
     70 H25          2.3280    -5.2750    -6.3150 ha         1 7AW       0.099500
     71 H26          4.8480    -1.6830    -3.4320 hn         1 7AW       0.177500
     72 H27          7.2290    -1.8840    -4.6530 h1         1 7AW       0.069700
     73 H28          5.9910     0.1650    -4.0370 hc         1 7AW       0.019700
     74 H29          7.7510     1.7090    -4.5040 hc         1 7AW       0.013867
     75 H30          8.1630     0.8960    -6.0200 hc         1 7AW       0.013867
     76 H31          8.5230     0.1170    -4.4730 hc         1 7AW       0.013867
     77 H32          5.4410     1.8190    -5.7880 hc         1 7AW       0.013867
     78 H33          6.0080     0.6950    -7.0300 hc         1 7AW       0.013867
     79 H34          4.5800     0.2990    -6.0650 hc         1 7AW       0.013867
     80 H35          6.6350    -1.6430    -7.5190 hn         1 7AW       0.201500
     81 H36          7.7070    -2.6480    -9.1720 h1         1 7AW       0.009033
     82 H37          8.8910    -1.7510   -10.1330 h1         1 7AW       0.009033
     83 H38          7.5820    -0.8890    -9.3110 h1         1 7AW       0.009033
     84 H39         10.9940    -0.9180    -7.4110 h1         1 7AW       0.039200
     85 H40         10.8310    -1.1040    -9.1630 h1         1 7AW       0.039200
     86 H41         12.0420    -4.9680    -4.8910 hc         1 7AW       0.050700
     87 H42         10.3460    -6.5580    -5.7180 hc         1 7AW       0.009367
     88 H43         11.5800    -7.3800    -6.6830 hc         1 7AW       0.009367
     89 H44         11.6690    -7.4160    -4.9170 hc         1 7AW       0.009367
     90 H45         14.3080    -4.9980    -5.9570 hc         1 7AW       0.009367
     91 H46         13.8960    -6.5440    -6.7120 hc         1 7AW       0.009367
     92 H47         14.0040    -6.4210    -4.9510 hc         1 7AW       0.009367
     93 H48         11.2280    -3.3890   -10.2110 h4         1 7AW       0.157000
@<TRIPOS>BOND
     1     1     2 2   
     2     2     3 1   
     3     2    10 1   
     4     3     4 1   
     5     4     5 1   
     6     4    46 1   
     7     4    47 1   
     8     5     6 1   
     9     5     9 2   
    10     6     7 1   
    11     7     8 2   
    12     7    48 1   
    13     8     9 1   
    14     9    49 1   
    15    10    11 1   
    16    10    50 1   
    17    11    12 1   
    18    11    15 1   
    19    11    51 1   
    20    12    13 1   
    21    12    52 1   
    22    12    53 1   
    23    13    14 1   
    24    13    54 1   
    25    13    55 1   
    26    14    56 1   
    27    14    57 1   
    28    14    58 1   
    29    15    16 1   
    30    15    59 1   
    31    15    60 1   
    32    16    17 1   
    33    16    61 1   
    34    16    62 1   
    35    17    18 1   
    36    17    25 1   
    37    17    63 1   
    38    18    19 1   
    39    18    64 1   
    40    18    65 1   
    41    19    20 ar  
    42    19    24 ar  
    43    20    21 ar  
    44    20    66 1   
    45    21    22 ar  
    46    21    67 1   
    47    22    23 ar  
    48    22    68 1   
    49    23    24 ar  
    50    23    69 1   
    51    24    70 1   
    52    25    26 1   
    53    25    71 1   
    54    26    27 2   
    55    26    28 1   
    56    28    29 1   
    57    28    32 1   
    58    28    72 1   
    59    29    30 1   
    60    29    31 1   
    61    29    73 1   
    62    30    74 1   
    63    30    75 1   
    64    30    76 1   
    65    31    77 1   
    66    31    78 1   
    67    31    79 1   
    68    32    33 1   
    69    32    80 1   
    70    33    34 2   
    71    33    35 1   
    72    35    36 1   
    73    35    37 1   
    74    36    81 1   
    75    36    82 1   
    76    36    83 1   
    77    37    38 1   
    78    37    84 1   
    79    37    85 1   
    80    38    39 1   
    81    38    45 2   
    82    39    40 2   
    83    40    41 1   
    84    40    44 1   
    85    41    42 1   
    86    41    43 1   
    87    41    86 1   
    88    42    87 1   
    89    42    88 1   
    90    42    89 1   
    91    43    90 1   
    92    43    91 1   
    93    43    92 1   
    94    44    45 1   
    95    45    93 1   
@<TRIPOS>SUBSTRUCTURE
     1 7AW         1 TEMP              0 ****  ****    0 ROOT
