@<TRIPOS>MOLECULE
molecule
   47    50     1     0     0
SMALL
bcc


@<TRIPOS>ATOM
      1 CAH          0.0000     0.0000     0.0000 ca         1 7AX      -0.093000
      2 CAI          1.4050     0.0000     0.0000 ca         1 7AX      -0.021000
      3 CAJ          2.1010     0.0000     1.2360 ca         1 7AX      -0.041000
      4 CAK          1.3730     0.0010     2.4380 ca         1 7AX      -0.078000
      5 CAL          0.0070     0.0010     2.4000 ca         1 7AX       0.055100
      6 CAM         -0.6760     0.0060     1.1800 ca         1 7AX      -0.150000
      7 CAY          2.1300     0.0000    -1.2060 ca         1 7AX      -0.116000
      8 CAZ          3.4860    -0.0010    -1.1840 ca         1 7AX      -0.083000
      9 CBA          4.1880    -0.0010     0.0340 ca         1 7AX       0.001000
     10 CBB          3.5040     0.0000     1.2400 ca         1 7AX      -0.067000
     11 CBC          5.6200    -0.0030     0.0310 cg         1 7AX       0.225800
     12 NBD          6.7560    -0.0240     0.0230 n1         1 7AX      -0.333800
     13 C0P         -3.8020     3.1880     9.6730 cc         1 7AX      -0.020400
     14 C00         -2.9870    -2.2420     5.2980 ca         1 7AX      -0.056000
     15 C0D         -4.0120     0.5770     5.4790 c3         1 7AX      -0.185600
     16 C0E         -4.6240     1.4890     4.2310 c3         1 7AX       0.074000
     17 C0K         -2.5930     4.6860     8.3130 c          1 7AX       0.724500
     18 C0N         -2.2710     4.8500    10.6210 c          1 7AX       0.745700
     19 C0O         -3.1620     3.8150    10.8410 cd         1 7AX      -0.453200
     20 N0H         -3.5230     3.6240     8.3400 n          1 7AX      -0.482000
     21 N0M         -2.0260     5.2270     9.5040 ns         1 7AX      -0.567500
     22 O0A         -0.6960     0.0020     3.5630 os         1 7AX      -0.190200
     23 O0B         -3.0740    -0.2860     4.2690 os         1 7AX      -0.180900
     24 O0S         -1.6080     5.1920    11.4820 o          1 7AX      -0.712500
     25 C01         -2.8860    -3.3700     4.5050 ca         1 7AX      -0.171000
     26 C02         -2.0550    -3.3700     3.4000 ca         1 7AX       0.017000
     27 C03         -1.3200    -2.2420     3.0830 ca         1 7AX      -0.257000
     28 C04         -1.4180    -1.1080     3.8730 ca         1 7AX       0.219100
     29 C05         -2.2540    -1.1070     4.9850 ca         1 7AX      -0.056900
     30 H1          -0.5420    -0.0000    -0.9380 ha         1 7AX       0.150000
     31 H2           1.8950     0.0010     3.3870 ha         1 7AX       0.163000
     32 H3          -1.7590     0.0060     1.1840 ha         1 7AX       0.140000
     33 H4           1.6040    -0.0010    -2.1540 ha         1 7AX       0.147000
     34 H5           4.0430    -0.0010    -2.1140 ha         1 7AX       0.151000
     35 H6           4.0430     0.0000     2.1790 ha         1 7AX       0.156000
     36 H7          -4.4990     2.3750     9.8360 h4         1 7AX       0.116000
     37 H8          -3.6390    -2.2450     6.1630 ha         1 7AX       0.182000
     38 H9          -3.0230     0.1850     5.2750 h1         1 7AX       0.292200
     39 H10         -4.1120     1.0570     6.4450 h1         1 7AX       0.292200
     40 H11         -4.4240     1.0150     3.2770 h1         1 7AX       0.107700
     41 H12         -4.2180     2.4930     4.2550 h1         1 7AX       0.107700
     42 H13         -3.4580     3.5540    11.8500 ha         1 7AX       0.137000
     43 H14         -1.4580     6.0460     9.4180 hn         1 7AX       0.310500
     44 H15         -3.4580    -4.2560     4.7490 ha         1 7AX       0.167000
     45 H16         -1.9770    -4.2550     2.7800 ha         1 7AX       0.162000
     46 H17         -0.6700    -2.2450     2.2160 ha         1 7AX       0.178000
     47 O0Q         -2.0450     4.9750     7.2520 o          1 7AX      -0.706500
@<TRIPOS>BOND
     1    25    14 ar  
     2    25    26 ar  
     3    14    29 ar  
     4    26    27 ar  
     5    29    23 1   
     6    29    28 ar  
     7    15    23 1   
     8    15    16 1   
     9    27    28 ar  
    10    47    17 2   
    11    28    22 1   
    12    16    20 1   
    13    17    20 1   
    14    17    21 1   
    15    20    13 1   
    16    22     5 1   
    17    21    18 1   
    18    13    19 2   
    19     4     5 ar  
    20     4     3 ar  
    21     5     6 ar  
    22    18    19 1   
    23    18    24 2   
    24    10     3 ar  
    25    10     9 ar  
    26     3     2 ar  
    27     6     1 ar  
    28    12    11 3   
    29    11     9 1   
    30     9     8 ar  
    31     2     1 ar  
    32     2     7 ar  
    33     8     7 ar  
    34     1    30 1   
    35     4    31 1   
    36     6    32 1   
    37     7    33 1   
    38     8    34 1   
    39    10    35 1   
    40    13    36 1   
    41    14    37 1   
    42    15    38 1   
    43    15    39 1   
    44    16    40 1   
    45    16    41 1   
    46    19    42 1   
    47    21    43 1   
    48    25    44 1   
    49    26    45 1   
    50    27    46 1   
@<TRIPOS>SUBSTRUCTURE
     1 7AX         1 TEMP              0 ****  ****    0 ROOT
