@<TRIPOS>MOLECULE
molecule
   50    53     1     0     0
SMALL
bcc


@<TRIPOS>ATOM
      1 CAH          0.0000     0.0000     0.0000 ca         1 7AY       0.007400
      2 CAI          1.4060     0.0000     0.0000 ca         1 7AY       0.015000
      3 CAJ          2.1020     0.0000     1.2360 ca         1 7AY       0.022000
      4 CAK          1.3740     0.0010     2.4380 ca         1 7AY      -0.156300
      5 CAL          0.0080     0.0010     2.4020 ca         1 7AY       0.039100
      6 CAM         -0.6770     0.0000     1.1830 ca         1 7AY      -0.023000
      7 CAY          2.1280    -0.0010    -1.2070 ca         1 7AY      -0.124000
      8 CAZ          3.4860    -0.0020    -1.1860 ca         1 7AY      -0.098000
      9 CBA          4.1890    -0.0020     0.0330 ca         1 7AY       0.017000
     10 CBB          3.5060    -0.0010     1.2380 ca         1 7AY      -0.062000
     11 CBC          5.6200    -0.0040     0.0280 cg         1 7AY       0.232800
     12 NBD          6.7560    -0.0100     0.0040 n1         1 7AY      -0.344800
     13 C0P          2.8290    -3.6680     4.8940 cc         1 7AY      -0.044400
     14 C00         -4.0210    -1.4730     3.3510 ca         1 7AY      -0.077000
     15 C0D         -1.4670    -1.6560     1.4220 c3         1 7AY      -0.465600
     16 C0E          0.1530    -1.3120     1.4350 c3         1 7AY       0.017000
     17 C0K          2.7010    -4.9330     2.2670 c          1 7AY       0.762500
     18 C0N          4.4660    -5.9050     4.1930 c          1 7AY       0.970700
     19 C0O          4.0800    -4.8630     5.3160 cd         1 7AY      -0.543200
     20 N0H          2.2040    -3.8180     3.2910 n          1 7AY      -0.534000
     21 N0M          3.8040    -5.8420     2.9080 ns         1 7AY      -0.835500
     22 O0A         -0.6940     0.0010     3.5650 os         1 7AY      -0.224200
     23 O0B         -1.9890    -2.2800     2.5930 os         1 7AY      -0.176900
     24 O0S          5.0550    -6.4740     4.4260 o          1 7AY      -0.424500
     25 C01         -4.8040    -0.3330     3.3480 ca         1 7AY      -0.119000
     26 C02         -4.2130     0.9150     3.4180 ca         1 7AY      -0.104000
     27 C03         -2.8380     1.0290     3.4910 ca         1 7AY      -0.099000
     28 C04         -2.0470    -0.1100     3.4940 ca         1 7AY       0.062100
     29 C05         -2.6420    -1.3660     3.4240 ca         1 7AY       0.079100
     30 C31          2.0970     0.0000     3.7600 c3         1 7AY      -0.073800
     31 Cl1         -0.8720     0.0070    -1.5010 cl         1 7AY      -0.073400
     32 H1          -1.7520     0.0560     1.0610 ha         1 7AY       0.201000
     33 H2           1.7830     0.0350    -2.2330 ha         1 7AY       0.156000
     34 H3           3.9400     0.0150    -2.1700 ha         1 7AY       0.148000
     35 H4           3.9850     0.2620     2.1740 ha         1 7AY       0.158000
     36 H5           2.5930    -2.8140     5.5170 h4         1 7AY       0.119000
     37 H6          -4.4740    -2.4450     3.5040 ha         1 7AY       0.173000
     38 H7          -1.6320    -2.1920     2.3490 h1         1 7AY       0.242200
     39 H8          -2.0740    -2.2060     0.7130 h1         1 7AY       0.242200
     40 H9           0.1390    -0.2980     1.8150 h1         1 7AY       0.196700
     41 H10          0.3680    -2.0830     2.1650 h1         1 7AY       0.196700
     42 H11          4.4350    -5.0360     6.3250 ha         1 7AY       0.131000
     43 H12          4.1850    -6.2310     2.0680 hn         1 7AY       0.250500
     44 H13         -5.8730    -0.1610     3.3390 ha         1 7AY       0.165000
     45 H14         -4.9470     1.7080     3.3390 ha         1 7AY       0.158000
     46 H15         -2.3470     1.9950     3.5190 ha         1 7AY       0.167000
     47 H16          1.8020    -0.8570     4.3530 hc         1 7AY       0.078700
     48 H17          3.0800     0.4330     3.8990 hc         1 7AY       0.078700
     49 H18          1.2830     0.3420     4.3880 hc         1 7AY       0.078700
     50 O0Q          2.2030    -4.9500     1.2850 o          1 7AY      -0.561500
@<TRIPOS>BOND
     1    50    17 2
     2    16    15 1
     3    16    20 1
     4    17    20 1
     5    17    21 1
     6    15    23 1
     7    20    13 1
     8    21    18 1
     9    13    19 2
    10    23    29 1
    11    18    19 1
    12    18    24 2
    13    14    29 ar
    14    14    25 ar
    15    29    28 ar
    16    25    26 ar
    17    28    22 1
    18    28    27 ar
    19    26    27 ar
    20    22     5 1
    21     6     5 ar
    22     6     1 ar
    23     5     4 ar
    24    31     1 1
    25     1     2 ar
    26     4    30 1
    27     4     3 ar
    28     2     3 ar
    29     2     7 ar
    30     3    10 ar
    31     7     8 ar
    32    10     9 ar
    33     8     9 ar
    34     9    11 1
    35    11    12 3
    36     6    32 1
    37     7    33 1
    38     8    34 1
    39    10    35 1
    40    13    36 1
    41    14    37 1
    42    15    38 1
    43    15    39 1
    44    16    40 1
    45    16    41 1
    46    19    42 1
    47    21    43 1
    48    25    44 1
    49    26    45 1
    50    27    46 1
    51    30    47 1
    52    30    48 1
    53    30    49 1
@<TRIPOS>SUBSTRUCTURE
     1 7AY         1 TEMP              0 ****  ****    0 ROOT
