@<TRIPOS>MOLECULE
molecule
   30    29     1     0     0
SMALL
bcc


@<TRIPOS>ATOM
      1 C2           0.0000     0.0000     0.0000 c          1 7B0       0.851600
      2 O4           3.2200     2.1360     1.2100 o          1 7B0      -0.569800
      3 C8           3.5420    -1.1870    -0.8310 c3         1 7B0      -0.083400
      4 C11          4.0530    -2.4360    -1.5530 c3         1 7B0      -0.111400
      5 C14          5.5780    -2.3750    -1.6620 c3         1 7B0       0.089800
      6 N17          6.0670    -3.5740    -2.3540 nz         1 7B0      -0.810600
      7 C5           2.0180    -1.2490    -0.7210 c3         1 7B0      -0.056400
      8 C4           1.5070     0.0000     0.0000 c3         1 7B0       0.096500
      9 O3          -0.6040    -0.0060     1.0450 o          1 7B0      -0.798800
     10 O1          -0.6710     0.0000    -1.1630 o          1 7B0      -0.798800
     11 N1           1.9960     0.0000     1.3810 n7         1 7B0      -0.852100
     12 S1           2.3890     1.4290     2.1200 s6         1 7B0       1.381800
     13 O2           2.7890     1.0990     3.4430 o          1 7B0      -0.569800
     14 N2           0.9930     2.3100     2.2590 nz         1 7B0      -0.811500
     15 H1           3.8280    -0.3050    -1.3910 hc         1 7B0       0.052700
     16 H2           3.9740    -1.1410     0.1610 hc         1 7B0       0.052700
     17 H3           3.7660    -3.3190    -0.9930 hc         1 7B0       0.069700
     18 H4           3.6210    -2.4820    -2.5450 hc         1 7B0       0.069700
     19 H5           6.0100    -2.3290    -0.6700 hx         1 7B0       0.111200
     20 H6           5.8650    -1.4930    -2.2220 hx         1 7B0       0.111200
     21 H7           5.8020    -4.3890    -1.8370 hn         1 7B0       0.457133
     22 H8           7.0640    -3.5340    -2.4260 hn         1 7B0       0.457133
     23 H10          1.7320    -2.1320    -0.1620 hc         1 7B0       0.080700
     24 H11          1.5860    -1.2950    -1.7140 hc         1 7B0       0.080700
     25 H12          1.8680     0.8850    -0.5110 h1         1 7B0       0.067700
     26 H14          2.0640    -0.8610     1.8870 hn         1 7B0       0.482800
     27 H15          0.6780     2.5810     1.3490 hn         1 7B0       0.498467
     28 H16          1.1690     3.1280     2.8090 hn         1 7B0       0.498467
     29 H173         5.6540    -3.6260    -3.2640 hn         1 7B0       0.457133
     30 H23          0.2900     1.7530     2.7030 hn         1 7B0       0.498467
@<TRIPOS>BOND
     1     2    12 2   
     2    10     1 1   
     3    13    12 2   
     4    12    14 1   
     5    12    11 1   
     6     9     1 1   
     7     1     8 1   
     8    11     8 1   
     9     8     7 1   
    10     7     3 1   
    11     3     4 1   
    12     6     5 1   
    13     4     5 1   
    14     3    15 1   
    15     3    16 1   
    16     4    17 1   
    17     4    18 1   
    18     5    19 1   
    19     5    20 1   
    20     6    21 1   
    21     6    22 1   
    22     7    23 1   
    23     7    24 1   
    24     8    25 1   
    25    11    26 1   
    26    14    27 1   
    27    14    28 1   
    28    29     6 1   
    29    30    14 1   
@<TRIPOS>SUBSTRUCTURE
     1 7B0         1 TEMP              0 ****  ****    0 ROOT
