@<TRIPOS>MOLECULE
7B0
   30    29     1     0     0
SMALL
bcc


@<TRIPOS>ATOM
      1 C2           0.0000     0.0000     0.0000 c          1 7B0       0.934600
      2 O4           3.2200     2.1360     1.2100 o          1 7B0      -0.539300
      3 C8           3.5420    -1.1870    -0.8310 c3         1 7B0      -0.028400
      4 C11          4.0530    -2.4360    -1.5530 c3         1 7B0      -0.034400
      5 C14          5.5780    -2.3750    -1.6620 c3         1 7B0      -0.054200
      6 N17          6.0670    -3.5740    -2.3540 nz         1 7B0       0.087400
      7 C5           2.0180    -1.2490    -0.7210 c3         1 7B0      -0.007400
      8 C4           1.5070     0.0000     0.0000 c3         1 7B0       0.055500
      9 O3          -0.6040    -0.0060     1.0450 o          1 7B0      -0.843300
     10 O1          -0.6710     0.0000    -1.1630 o          1 7B0      -0.843300
     11 N1           1.9960     0.0000     1.3810 n7         1 7B0      -0.505100
     12 S1           2.3890     1.4290     2.1200 s6         1 7B0       1.009800
     13 O2           2.7890     1.0990     3.4430 o          1 7B0      -0.539300
     14 N2           0.9930     2.3100     2.2590 nz         1 7B0      -0.147500
     15 H1           3.8280    -0.3050    -1.3910 hc         1 7B0       0.023700
     16 H2           3.9740    -1.1410     0.1610 hc         1 7B0       0.023700
     17 H3           3.7660    -3.3190    -0.9930 hc         1 7B0       0.037200
     18 H4           3.6210    -2.4820    -2.5450 hc         1 7B0       0.037200
     19 H5           6.0100    -2.3290    -0.6700 hx         1 7B0       0.084700
     20 H6           5.8650    -1.4930    -2.2220 hx         1 7B0       0.084700
     21 H7           5.8020    -4.3890    -1.8370 hn         1 7B0       0.223467
     22 H8           7.0640    -3.5340    -2.4260 hn         1 7B0       0.223467
     23 H10          1.7320    -2.1320    -0.1620 hc         1 7B0       0.048200
     24 H11          1.5860    -1.2950    -1.7140 hc         1 7B0       0.048200
     25 H12          1.8680     0.8850    -0.5110 h1         1 7B0       0.047700
     26 H14          2.0640    -0.8610     1.8870 hn         1 7B0       0.376800
     27 H15          0.6780     2.5810     1.3490 hn         1 7B0       0.324133
     28 H16          1.1690     3.1280     2.8090 hn         1 7B0       0.324133
     29 H173         5.6540    -3.6260    -3.2640 hn         1 7B0       0.223467
     30 H23          0.2900     1.7530     2.7030 hn         1 7B0       0.324133
@<TRIPOS>BOND
     1     1     8 1   
     2     1     9 1   
     3     1    10 1   
     4     2    12 2   
     5     3     4 1   
     6     3     7 1   
     7     3    15 1   
     8     3    16 1   
     9     4     5 1   
    10     4    17 1   
    11     4    18 1   
    12     5     6 1   
    13     5    19 1   
    14     5    20 1   
    15     6    21 1   
    16     6    22 1   
    17     6    29 1   
    18     7     8 1   
    19     7    23 1   
    20     7    24 1   
    21     8    11 1   
    22     8    25 1   
    23    11    12 1   
    24    11    26 1   
    25    12    13 2   
    26    12    14 1   
    27    14    27 1   
    28    14    28 1   
    29    14    30 1   
@<TRIPOS>SUBSTRUCTURE
     1 7B0         1 TEMP              0 ****  ****    0 ROOT
