@<TRIPOS>MOLECULE
molecule
   67    72     1     0     0
SMALL
bcc


@<TRIPOS>ATOM
      1 N            0.0000     0.0000     0.0000 nc         1 7B2      -0.372700
      2 C           -4.8770     1.0930     3.6110 c3         1 7B2      -0.025800
      3 O           -2.4560     2.4550     4.3640 o          1 7B2      -0.547100
      4 Cl           6.9670    -4.3900     0.7570 cl         1 7B2      -0.068000
      5 N2           4.9020    -1.3800    -0.5410 na         1 7B2       0.258400
      6 C18          5.8920    -3.4180    -0.1970 ca         1 7B2       0.597300
      7 C17          5.2320    -3.9640    -1.3200 ca         1 7B2      -0.240300
      8 C15          5.1720    -5.1720    -1.9650 cc         1 7B2      -0.023300
      9 C16          5.9200    -6.4190    -1.5670 c3         1 7B2      -0.040900
     10 N3           4.3310    -5.0590    -3.0150 na         1 7B2       0.032500
     11 C14          4.0140    -6.1480    -3.9420 c3         1 7B2       0.007600
     12 C12          3.8210    -3.8110    -3.0990 cc         1 7B2      -0.001300
     13 C13          2.8500    -3.3280    -4.1460 c3         1 7B2      -0.043900
     14 C11          4.3360    -3.0570    -2.0780 ca         1 7B2      -0.188000
     15 C10          4.2230    -1.7320    -1.6070 ca         1 7B2       0.059700
     16 N4           5.6770    -2.1600     0.1100 nb         1 7B2      -0.554800
     17 C9           4.7670     0.0000    -0.0700 c3         1 7B2       0.108500
     18 C8           4.3500    -0.0020     1.3780 cc         1 7B2      -0.139300
     19 N5           5.1910    -0.0040     2.4470 na         1 7B2      -0.009500
     20 C19          6.6540    -0.0030     2.3590 c3         1 7B2       0.027600
     21 C20          4.4870    -0.0040     3.6090 cc         1 7B2      -0.011300
     22 C21          5.0760    -0.0060     4.9950 c3         1 7B2      -0.036900
     23 C22          3.1620    -0.0030     3.3100 cd         1 7B2      -0.270300
     24 C7           3.0740    -0.0010     1.8330 cd         1 7B2      -0.025000
     25 C23          1.9120    -0.0030     4.0720 cd         1 7B2       0.470200
     26 N6           0.7700    -0.0020     3.4550 nc         1 7B2      -0.465800
     27 N7           0.6410    -0.0000     2.0690 na         1 7B2       0.075300
     28 C6           1.7330     0.0000     1.2370 cd         1 7B2      -0.094300
     29 N1           1.2860     0.0000     0.0000 nc         1 7B2      -0.125000
     30 C5          -0.4510    -0.0000     1.2380 cd         1 7B2       0.482400
     31 C4          -1.8670    -0.0000     1.6540 cd         1 7B2      -0.165900
     32 C2          -2.4930     0.8600     2.6790 cd         1 7B2      -0.255600
     33 C3          -1.8370     1.8850     3.4900 c          1 7B2       0.617500
     34 C24         -2.8630    -0.7870     1.1660 cc         1 7B2      -0.062600
     35 C25         -2.7080    -1.8320     0.0920 c3         1 7B2      -0.022800
     36 N8          -4.0240    -0.4810     1.8100 na         1 7B2      -0.036100
     37 C26         -5.3150    -1.1250     1.5520 c3         1 7B2       0.023600
     38 C1          -3.8240     0.4960     2.7130 cc         1 7B2      -0.021600
     39 H1          -5.8090     0.5560     3.4810 hc         1 7B2       0.061367
     40 H2          -5.0210     2.1350     3.3560 hc         1 7B2       0.061367
     41 H3          -4.5570     1.0150     4.6440 hc         1 7B2       0.061367
     42 H4           5.9690    -7.0960    -2.4120 hc         1 7B2       0.073033
     43 H5           6.9240    -6.1550    -1.2580 hc         1 7B2       0.073033
     44 H6           5.4040    -6.9030    -0.7470 hc         1 7B2       0.073033
     45 H7           4.8610    -6.3260    -4.5930 h1         1 7B2       0.082033
     46 H8           3.1510    -5.8750    -4.5380 h1         1 7B2       0.082033
     47 H9           3.7950    -7.0480    -3.3800 h1         1 7B2       0.082033
     48 H10          3.2140    -3.6010    -5.1300 hc         1 7B2       0.074700
     49 H11          1.8820    -3.7860    -3.9800 hc         1 7B2       0.074700
     50 H12          2.7560    -2.2510    -4.0820 hc         1 7B2       0.074700
     51 H13          3.5820    -1.0190    -2.1130 h4         1 7B2       0.213000
     52 H14          5.7170     0.5110    -0.1710 h1         1 7B2       0.109200
     53 H15          4.0170     0.5120    -0.6610 h1         1 7B2       0.109200
     54 H16          7.0240    -1.0130     2.4910 h1         1 7B2       0.064367
     55 H17          6.9560     0.3680     1.3870 h1         1 7B2       0.064367
     56 H18          7.0620     0.6360     3.1330 h1         1 7B2       0.064367
     57 H19          5.5000     0.9680     5.2090 hc         1 7B2       0.064033
     58 H20          5.8530    -0.7590     5.0560 hc         1 7B2       0.064033
     59 H21          4.3000    -0.2280     5.7180 hc         1 7B2       0.064033
     60 H22          1.9410    -0.0140     5.1550 h4         1 7B2       0.062100
     61 H23         -0.7770     2.0700     3.3690 h4         1 7B2       0.000200
     62 H24         -1.6950    -2.2180     0.1070 hc         1 7B2       0.052033
     63 H25         -3.4050    -2.6410     0.2720 hc         1 7B2       0.052033
     64 H26         -2.9110    -1.3890    -0.8750 hc         1 7B2       0.052033
     65 H27         -5.5030    -1.8740     2.3110 h1         1 7B2       0.060033
     66 H28         -5.2950    -1.5960     0.5760 h1         1 7B2       0.060033
     67 H29         -6.1010    -0.3800     1.5770 h1         1 7B2       0.060033
@<TRIPOS>BOND
     1    13    12 1
     2    11    10 1
     3    12    10 1
     4    12    14 2
     5    10     8 1
     6     1    29 1
     7     1    30 2
     8    14    15 ar
     9    14     7 ar
    10    35    34 1
    11     8     9 1
    12     8     7 2
    13    15     5 2
    14    29    28 2
    15    37    36 1
    16    34    36 1
    17    34    31 2
    18     7     6 ar
    19    36    38 1
    20    30    31 1
    21    30    27 1
    22    31    32 1
    23     5    17 1
    24     5    16 1
    25    38    32 2
    26    38     2 1
    27    32    33 1
    28    17    18 1
    29    28    27 1
    30    28    24 1
    31     3    33 2
    32     6    16 ar
    33     6     4 1
    34    27    26 1
    35    24    18 2
    36    24    23 1
    37    18    19 1
    38    26    25 2
    39    19    20 1
    40    19    21 1
    41    23    25 1
    42    23    21 2
    43    21    22 1
    44     2    39 1
    45     2    40 1
    46     2    41 1
    47     9    42 1
    48     9    43 1
    49     9    44 1
    50    11    45 1
    51    11    46 1
    52    11    47 1
    53    13    48 1
    54    13    49 1
    55    13    50 1
    56    15    51 1
    57    17    52 1
    58    17    53 1
    59    20    54 1
    60    20    55 1
    61    20    56 1
    62    22    57 1
    63    22    58 1
    64    22    59 1
    65    25    60 1
    66    33    61 1
    67    35    62 1
    68    35    63 1
    69    35    64 1
    70    37    65 1
    71    37    66 1
    72    37    67 1
@<TRIPOS>SUBSTRUCTURE
     1 7B2         1 TEMP              0 ****  ****    0 ROOT
