@<TRIPOS>MOLECULE
molecule
   27    28     1     0     0
SMALL
bcc


@<TRIPOS>ATOM
      1 C4           0.0000     0.0000     0.0000 cc         1 7B3      -0.109300
      2 C5          -0.8790    -0.0000    -1.2240 c3         1 7B3      -0.019900
      3 C6           2.1870    -0.0010    -1.2080 c3         1 7B3       0.021600
      4 N1          -1.6830     0.0100     3.2890 nb         1 7B3      -0.310000
      5 C7           1.8430     0.0000     1.2600 cc         1 7B3      -0.072300
      6 C8           3.3000    -0.0010     1.6410 c3         1 7B3      -0.022900
      7 N2           1.3570     0.0000     0.0000 na         1 7B3       0.008500
      8 C9           0.7900     0.0040     2.1340 ca         1 7B3      -0.224300
      9 C1           0.5920     0.0060     3.5800 ca         1 7B3       0.647600
     10 O            1.6470     0.0050     4.4300 os         1 7B3      -0.439100
     11 C            1.3550     0.0070     5.8280 c3         1 7B3       0.135700
     12 C3          -0.4360     0.0050     1.2980 ca         1 7B3      -0.197300
     13 C2          -1.6720     0.0090     1.9820 ca         1 7B3       0.371200
     14 N           -0.6460     0.0080     4.0350 nb         1 7B3      -0.441000
     15 H1          -1.9190     0.0370    -0.9220 hc         1 7B3       0.049033
     16 H2          -0.7010    -0.9030    -1.7960 hc         1 7B3       0.049033
     17 H3          -0.6490     0.8650    -1.8340 hc         1 7B3       0.049033
     18 H4           2.8600    -0.8490    -1.1830 h1         1 7B3       0.059367
     19 H5           1.5510    -0.0700    -2.0820 h1         1 7B3       0.059367
     20 H6           2.7630     0.9160    -1.2510 h1         1 7B3       0.059367
     21 H7           3.5130     0.8640     2.2580 hc         1 7B3       0.052700
     22 H8           3.5290    -0.9040     2.1930 hc         1 7B3       0.052700
     23 H9           3.9070     0.0380     0.7440 hc         1 7B3       0.052700
     24 H10          0.8090     0.9080     6.0810 h1         1 7B3       0.048367
     25 H11          2.2800    -0.0250     6.3900 h1         1 7B3       0.048367
     26 H12          0.7530    -0.8600     6.0730 h1         1 7B3       0.048367
     27 H13         -2.6030     0.0110     1.4270 h4         1 7B3       0.024100
@<TRIPOS>BOND
     1    11    10 1   
     2    10     9 1   
     3    14     9 ar  
     4    14     4 ar  
     5     9     8 ar  
     6     4    13 ar  
     7     6     5 1   
     8     8     5 2   
     9     8    12 ar  
    10     5     7 1   
    11    13    12 ar  
    12    12     1 2   
    13     7     1 1   
    14     7     3 1   
    15     1     2 1   
    16     2    15 1   
    17     2    16 1   
    18     2    17 1   
    19     3    18 1   
    20     3    19 1   
    21     3    20 1   
    22     6    21 1   
    23     6    22 1   
    24     6    23 1   
    25    11    24 1   
    26    11    25 1   
    27    11    26 1   
    28    13    27 1   
@<TRIPOS>SUBSTRUCTURE
     1 7B3         1 TEMP              0 ****  ****    0 ROOT
