@<TRIPOS>MOLECULE
molecule
   23    24     1     0     0
SMALL
bcc


@<TRIPOS>ATOM
      1 C4           0.0000     0.0000     0.0000 ca         1 7B4       0.512300
      2 C5           1.4120     0.0000     0.0000 ca         1 7B4      -0.218300
      3 C6           2.4210     0.0000     0.9290 cc         1 7B4      -0.086300
      4 N1          -0.6310    -0.0020    -1.1510 nb         1 7B4      -0.337000
      5 N2           3.6040    -0.0000     0.2790 na         1 7B4       0.024500
      6 Cl          -0.8850    -0.0060     1.4930 cl         1 7B4      -0.159000
      7 N           -0.0520    -0.0030    -2.2910 nb         1 7B4      -0.326000
      8 C3           1.2470    -0.0030    -2.4620 ca         1 7B4       0.408200
      9 C2           2.0820    -0.0020    -1.3240 ca         1 7B4      -0.214300
     10 C1           3.4270    -0.0020    -1.0600 cc         1 7B4      -0.103300
     11 C            4.5260    -0.0020    -2.0920 c3         1 7B4      -0.021900
     12 H3           1.6720    -0.0040    -3.4580 h4         1 7B4       0.028100
     13 H4           5.0820    -0.9300    -2.0270 hc         1 7B4       0.051367
     14 H5           5.1920     0.8320    -1.9100 hc         1 7B4       0.051367
     15 H6           4.0920     0.0900    -3.0800 hc         1 7B4       0.051367
     16 C7           4.9110    -0.0000     0.9410 c3         1 7B4       0.017600
     17 C8           2.2380     0.0020     2.4240 c3         1 7B4      -0.029900
     18 H1           4.9080    -0.7260     1.7460 h1         1 7B4       0.061700
     19 H2           5.6790    -0.2600     0.2240 h1         1 7B4       0.061700
     20 H7           5.1110     0.9850     1.3440 h1         1 7B4       0.061700
     21 H8           2.3520    -1.0060     2.8030 hc         1 7B4       0.055367
     22 H9           2.9830     0.6450     2.8780 hc         1 7B4       0.055367
     23 H10          1.2480     0.3690     2.6670 hc         1 7B4       0.055367
@<TRIPOS>BOND
     1     5     3 1
     2     5    10 1
     3     3     2 2
     4    10    11 1
     5    10     9 2
     6     2     9 ar
     7     2     1 ar
     8     6     1 1
     9     9     8 ar
    10     1     4 ar
    11     8     7 ar
    12     4     7 ar
    13     8    12 1
    14    11    13 1
    15    11    14 1
    16    11    15 1
    17     5    16 1
    18     3    17 1
    19    16    18 1
    20    16    19 1
    21    16    20 1
    22    17    21 1
    23    17    22 1
    24    17    23 1
@<TRIPOS>SUBSTRUCTURE
     1 7B4         1 TEMP              0 ****  ****    0 ROOT
