@<TRIPOS>MOLECULE
molecule
   66    65     1     0     0
SMALL
bcc


@<TRIPOS>ATOM
      1 CAC          0.0000     0.0000     0.0000 c3         1 7B5      -0.094900
      2 CAW          1.5070     0.0000     0.0000 c2         1 7B5       0.040600
      3 CAD          2.2600     0.0000     1.3060 c3         1 7B5      -0.094900
      4 CAJ          2.1620    -0.0000    -1.1330 c2         1 7B5      -0.515200
      5 CAM          1.4150     0.1230    -2.4360 c3         1 7B5      -0.080200
      6 CAP          1.9650     1.3110    -3.2300 c3         1 7B5      -0.000200
      7 CAX          1.2170     1.4350    -4.5320 c2         1 7B5      -0.136400
      8 CAE          1.6470     0.6240    -5.7270 c3         1 7B5      -0.054900
      9 CAK          0.1940     2.2480    -4.6250 c2         1 7B5      -0.180200
     10 CAN         -0.6290     2.2810    -5.8870 c3         1 7B5      -0.049200
     11 CAQ         -2.0970     2.0220    -5.5460 c3         1 7B5      -0.117200
     12 CAY         -2.9200     2.0560    -6.8070 c2         1 7B5       0.065600
     13 CAF         -3.0580     0.8130    -7.6510 c3         1 7B5      -0.060900
     14 CAL         -3.5160     3.1640    -7.1720 c2         1 7B5      -0.434200
     15 CAO         -3.2720     4.4370    -6.4040 c3         1 7B5       0.124600
     16 OAV         -2.9970     5.5000    -7.3190 os         1 7B5      -0.326600
     17 CBB         -2.7500     6.7600    -6.6900 c3         1 7B5       0.095100
     18 CBA         -1.2770     6.8980    -6.4040 c          1 7B5       0.603100
     19 OAH         -0.5040     6.0520    -6.7890 o          1 7B5      -0.514000
     20 OAS         -0.8220     7.9610    -5.7240 os         1 7B5      -0.444900
     21 CAA          0.6080     8.0300    -5.4850 c3         1 7B5       0.138700
     22 CAR         -3.1980     7.8900    -7.6190 c3         1 7B5       0.225400
     23 OAW         -2.3880     7.8900    -8.7950 os         1 7B5      -0.581200
     24 PBC         -2.5810     8.9480    -9.9920 p5         1 7B5       1.623500
     25 OAU         -1.5900     8.5730   -11.2060 os         1 7B5      -0.587700
     26 CAI         -1.5970     9.2620   -12.4570 c3         1 7B5       0.195700
     27 OAI         -3.9820     8.9030   -10.4690 o          1 7B5      -0.788300
     28 OAT         -2.2420    10.4290    -9.4610 os         1 7B5      -0.587700
     29 CAB         -0.9640    10.7930    -8.9340 c3         1 7B5       0.195700
     30 H1          -0.3610    -0.1700     1.0070 hc         1 7B5       0.051700
     31 H2          -0.3610    -0.7870    -0.6500 hc         1 7B5       0.051700
     32 H3          -0.3610     0.9570    -0.3570 hc         1 7B5       0.051700
     33 H4           2.1700    -0.9720     1.7750 hc         1 7B5       0.051700
     34 H5           1.8470     0.7570     1.9610 hc         1 7B5       0.051700
     35 H6           3.3050     0.2150     1.1200 hc         1 7B5       0.051700
     36 H7           1.7000    -0.8550    -1.6120 ha         1 7B5       0.325000
     37 H8           0.3620     0.2790    -2.2350 hc         1 7B5       0.029700
     38 H9           1.5420    -0.7850    -3.0130 hc         1 7B5       0.029700
     39 H10          3.0180     1.1550    -3.4310 hc         1 7B5       0.060700
     40 H11          1.8390     2.2200    -2.6530 hc         1 7B5       0.060700
     41 H12          0.9130    -0.1480    -5.9230 hc         1 7B5       0.042700
     42 H13          1.7290     1.2720    -6.5920 hc         1 7B5       0.042700
     43 H14          2.6080     0.1670    -5.5260 hc         1 7B5       0.042700
     44 H15         -0.1130     2.8310    -3.7660 ha         1 7B5       0.121000
     45 H16         -0.5330     3.2540    -6.3550 hc         1 7B5       0.067200
     46 H17         -0.2760     1.5170    -6.5690 hc         1 7B5       0.067200
     47 H18         -2.1920     1.0490    -5.0780 hc         1 7B5       0.051200
     48 H19         -2.4500     2.7860    -4.8640 hc         1 7B5       0.051200
     49 H20         -2.1790     0.7010    -8.2740 hc         1 7B5       0.058700
     50 H21         -3.9370     0.8980    -8.2770 hc         1 7B5       0.058700
     51 H22         -3.1570    -0.0520    -7.0060 hc         1 7B5       0.058700
     52 H23         -4.0570     3.3930    -6.2610 ha         1 7B5       0.287000
     53 H24         -4.1520     4.6810    -5.8210 h1         1 7B5       0.009700
     54 H25         -2.4260     4.3030    -5.7410 h1         1 7B5       0.009700
     55 H26         -3.3050     6.8150    -5.7610 h1         1 7B5       0.063700
     56 H27          1.1370     7.8960    -6.4210 h1         1 7B5       0.049367
     57 H28          0.8580     8.9970    -5.0650 h1         1 7B5       0.049367
     58 H29          0.8970     7.2500    -4.7910 h1         1 7B5       0.049367
     59 H30         -3.0950     8.8390    -7.1080 h1         1 7B5       0.058200
     60 H31         -4.2350     7.7400    -7.8950 h1         1 7B5       0.058200
     61 H32         -2.0700     8.6410   -13.2080 h1         1 7B5       0.038033
     62 H33         -2.1470    10.1890   -12.3560 h1         1 7B5       0.038033
     63 H34         -0.5780     9.4770   -12.7560 h1         1 7B5       0.038033
     64 H35         -1.0510    10.9760    -7.8700 h1         1 7B5       0.038033
     65 H36         -0.6120    11.6900    -9.4280 h1         1 7B5       0.038033
     66 H37         -0.2600     9.9870    -9.1050 h1         1 7B5       0.038033
@<TRIPOS>BOND
     1    13    12 1
     2    21    20 1
     3    14    12 2
     4    14    15 1
     5    19    18 2
     6    16    15 1
     7    16    17 1
     8    12    11 1
     9    18    20 1
    10    18    17 1
    11    17    22 1
    12    11    10 1
    13     9    10 1
    14     9     7 2
    15    22    23 1
    16     6     7 1
    17     6     5 1
    18     7     8 1
    19    23    24 1
    20     4     5 1
    21     4     2 2
    22     3     2 1
    23    28    24 1
    24    28    29 1
    25    24    25 1
    26    24    27 2
    27     2     1 1
    28    25    26 1
    29     1    30 1
    30     1    31 1
    31     1    32 1
    32     3    33 1
    33     3    34 1
    34     3    35 1
    35     4    36 1
    36     5    37 1
    37     5    38 1
    38     6    39 1
    39     6    40 1
    40     8    41 1
    41     8    42 1
    42     8    43 1
    43     9    44 1
    44    10    45 1
    45    10    46 1
    46    11    47 1
    47    11    48 1
    48    13    49 1
    49    13    50 1
    50    13    51 1
    51    14    52 1
    52    15    53 1
    53    15    54 1
    54    17    55 1
    55    21    56 1
    56    21    57 1
    57    21    58 1
    58    22    59 1
    59    22    60 1
    60    26    61 1
    61    26    62 1
    62    26    63 1
    63    29    64 1
    64    29    65 1
    65    29    66 1
@<TRIPOS>SUBSTRUCTURE
     1 7B5         1 TEMP              0 ****  ****    0 ROOT
