@<TRIPOS>MOLECULE
7B6
   71    74     1     0     0
SMALL
bcc


@<TRIPOS>ATOM
      1 C2           0.0000     0.0000     0.0000 c3         1 7B6      -0.297000
      2 C3           1.5310     0.0000     0.0000 c3         1 7B6      -0.078000
      3 C7           5.5830    -0.1240     2.8860 c2         1 7B6       0.388000
      4 C8           2.7680     5.7860    10.5830 c3         1 7B6      -0.120000
      5 C10          3.9610     6.1730    11.5100 c3         1 7B6      -0.054000
      6 C14          3.0720     2.5050     6.9410 c3         1 7B6       0.024000
      7 C15          3.2810     3.9210     7.4140 c2         1 7B6       0.209000
      8 C19          4.9230     5.8700     9.4050 DU         1 7B6      -0.189000
      9 C20          5.4310     4.6600    10.2490 c3         1 7B6      -0.111000
     10 C21          1.6710     2.0350     7.3370 c3         1 7B6      -0.353000
     11 C22          1.5050     0.5600     6.9680 c3         1 7B6      -0.042000
     12 C24          2.3010    -1.7620     7.4330 c3         1 7B6      -0.075000
     13 C27          4.8550     6.9850    10.5080 c3         1 7B6      -0.348000
     14 C26          4.7940     4.8620    11.6420 c3         1 7B6      -0.125000
     15 C18          3.4020     5.5860     9.1880 c3         1 7B6      -0.084000
     16 N17          3.2000     4.2100     8.7270 ns         1 7B6       0.004000
     17 O16          3.5200     4.7990     6.6120 o          1 7B6      -0.402000
     18 C23          2.4670    -0.2870     7.8020 c3         1 7B6      -0.160000
     19 C25          0.8620    -2.1990     7.7150 c3         1 7B6      -0.114000
     20 C28         -0.1010    -1.3530     6.8800 c3         1 7B6      -0.075000
     21 C29          0.0670     0.1230     7.2500 c3         1 7B6      -0.160000
     22 N13          3.2100     2.4530     5.4830 ns         1 7B6      -0.028000
     23 O12          3.7740     0.3060     5.5470 o          1 7B6      -0.478000
     24 N10          3.6940     1.2520     3.5390 ns         1 7B6       0.022000
     25 C6           4.0810     0.0000     2.8850 c3         1 7B6      -0.116000
     26 C5           3.5710     0.0010     1.4430 c3         1 7B6      -0.104000
     27 C4           2.0410     0.0000     1.4430 c3         1 7B6      -0.185000
     28 N1          -0.4890    -0.0000    -1.3850 nz         1 7B6       0.854000
     29 H1          -0.3620     0.8840     0.5110 hx         1 7B6       0.124000
     30 H2          -0.3600    -0.8850     0.5110 hx         1 7B6       0.124000
     31 H3           1.8890     0.8860    -0.5090 hc         1 7B6       0.070000
     32 H4           1.8900    -0.8860    -0.5090 hc         1 7B6       0.070000
     33 H7           3.7050     6.6770    12.4340 hc         1 7B6       0.096000
     34 H8           3.8180     1.8600     7.3890 h1         1 7B6       0.095000
     35 H10          5.1700     3.6970     9.8280 hc         1 7B6       0.063500
     36 H11          6.5090     4.7230    10.3410 hc         1 7B6       0.063500
     37 H12          2.5560     1.6220     7.8070 hc         1 7B6       0.115500
     38 H13          1.1790     2.4260     8.2190 hc         1 7B6       0.115500
     39 H14          1.7230     0.4210     5.9160 hc         1 7B6       0.101000
     40 H15          2.9800    -2.3580     8.0300 hc         1 7B6       0.052250
     41 H16          2.5170    -1.8990     6.3800 hc         1 7B6       0.052250
     42 H17          4.4770     6.6890     9.5360 DU         1 7B6       0.275000
     43 H18          5.9110     7.0450    10.7400 hc         1 7B6       0.107000
     44 H19          4.1700     4.0200    11.9160 hc         1 7B6       0.057500
     45 H20          5.5760     5.0070    12.3770 hc         1 7B6       0.057500
     46 H21          2.9840     6.2920     8.4800 h1         1 7B6       0.105000
     47 H22          2.9100     3.4990     9.3690 hn         1 7B6       0.096000
     48 H23          3.4080    -0.1040     7.2970 hc         1 7B6       0.068750
     49 H24          2.6900     0.2040     8.7420 hc         1 7B6       0.068750
     50 H25          0.7430    -3.2460     7.4640 hc         1 7B6       0.045500
     51 H26          0.6450    -2.0660     8.7680 hc         1 7B6       0.045500
     52 H27          0.1490    -1.4980     5.8360 hc         1 7B6       0.052250
     53 H28         -1.1220    -1.6650     7.0640 hc         1 7B6       0.052250
     54 H29         -0.6210     0.7300     6.6730 hc         1 7B6       0.068750
     55 H30         -0.1360     0.2460     8.3070 hc         1 7B6       0.068750
     56 H31          3.1040     3.2840     4.9360 hn         1 7B6       0.102000
     57 H32          3.5790     2.0840     2.9950 hn         1 7B6       0.065000
     58 H33          3.6520    -0.8400     3.4170 h1         1 7B6       0.096000
     59 H35          3.9460    -0.8550     0.8940 hc         1 7B6       0.070000
     60 H36          3.9050     0.9100     0.9580 hc         1 7B6       0.070000
     61 H37          2.0090    -0.8220     2.1480 hc         1 7B6       0.092000
     62 H38          1.6920     0.9050     1.9250 hc         1 7B6       0.092000
     63 H39         -0.1660    -0.8250    -1.8520 hn         1 7B6       0.013333
     64 H40         -1.4890     0.0160    -1.4000 hn         1 7B6       0.013333
     65 C11          3.5670     1.3010     4.8810 c2         1 7B6       0.218000
     66 H5           2.0360     6.5840    10.5580 hc         1 7B6       0.065500
     67 O9           6.1680    -1.1990     2.3360 o          1 7B6      -0.607000
     68 H6           2.3080     4.8650    10.9210 hc         1 7B6       0.065500
     69 H131        -0.1500     0.8160    -1.8560 hn         1 7B6       0.013333
     70 O8           6.2600     0.7450     3.3840 o          1 7B6      -0.607000
     71 H9           5.4590     6.0560     8.4820 ha         1 7B6       0.124000
@<TRIPOS>BOND
     1     1     2 1   
     2     1    28 1   
     3     1    29 1   
     4     1    30 1   
     5     2    27 1   
     6     2    31 1   
     7     2    32 1   
     8     3    25 1   
     9     3    67 1   
    10     3    70 1   
    11     4     5 1   
    12     4    15 1   
    13     4    66 1   
    14     4    68 1   
    15     5    13 1   
    16     5    14 1   
    17     5    33 1   
    18     6     7 1   
    19     6    10 1   
    20     6    22 1   
    21     6    34 1   
    22     7    16 1   
    23     7    17 1   
    24     8     9 1   
    25     8    13 1   
    26     8    15 1   
    27     8    42 1   
    28     8    71 1   
    29     9    14 1   
    30     9    35 1   
    31     9    36 1   
    32    10    11 1   
    33    10    37 1   
    34    10    38 1   
    35    11    18 1   
    36    11    21 1   
    37    11    39 1   
    38    12    18 1   
    39    12    19 1   
    40    12    40 1   
    41    12    41 1   
    42    13    42 1   
    43    13    43 1   
    44    14    44 1   
    45    14    45 1   
    46    15    16 1   
    47    15    46 1   
    48    16    47 1   
    49    18    48 1   
    50    18    49 1   
    51    19    20 1   
    52    19    50 1   
    53    19    51 1   
    54    20    21 1   
    55    20    52 1   
    56    20    53 1   
    57    21    54 1   
    58    21    55 1   
    59    22    56 1   
    60    22    65 1   
    61    23    65 1   
    62    24    25 1   
    63    24    57 1   
    64    24    65 1   
    65    25    26 1   
    66    25    58 1   
    67    26    27 1   
    68    26    59 1   
    69    26    60 1   
    70    27    61 1   
    71    27    62 1   
    72    28    63 1   
    73    28    64 1   
    74    28    69 1   
@<TRIPOS>SUBSTRUCTURE
     1 7B6         1 TEMP              0 ****  ****    0 ROOT
