@<TRIPOS>MOLECULE
molecule
   71    73     1     0     0
SMALL
bcc


@<TRIPOS>ATOM
      1 C2           0.0000     0.0000     0.0000 c3         1 7B6       0.084800
      2 C3           1.5310     0.0000     0.0000 c3         1 7B6      -0.081400
      3 C7           5.5830    -0.1240     2.8860 c          1 7B6       0.881600
      4 C8           2.7680     5.7860    10.5830 c3         1 7B6      -0.096400
      5 C10          3.9610     6.1730    11.5100 c3         1 7B6      -0.056700
      6 C14          3.0720     2.5050     6.9410 c3         1 7B6       0.129700
      7 C15          3.2810     3.9210     7.4140 c          1 7B6       0.650100
      8 C19          4.9230     5.8700     9.4050 c3         1 7B6      -0.169700
      9 C20          5.4310     4.6600    10.2490 c3         1 7B6      -0.076400
     10 C21          1.6710     2.0350     7.3370 c3         1 7B6      -0.265400
     11 C22          1.5050     0.5600     6.9680 c3         1 7B6      -0.029700
     12 C24          2.3010    -1.7620     7.4330 c3         1 7B6      -0.056400
     13 C27          4.8550     6.9850    10.5080 c3         1 7B6      -0.309400
     14 C26          4.7940     4.8620    11.6420 c3         1 7B6      -0.100400
     15 C18          3.4020     5.5860     9.1880 c3         1 7B6       0.082700
     16 N17          3.2000     4.2100     8.7270 ns         1 7B6      -0.575900
     17 O16          3.5200     4.7990     6.6120 o          1 7B6      -0.604100
     18 C23          2.4670    -0.2870     7.8020 c3         1 7B6      -0.110400
     19 C25          0.8620    -2.1990     7.7150 c3         1 7B6      -0.087400
     20 C28         -0.1010    -1.3530     6.8800 c3         1 7B6      -0.056400
     21 C29          0.0670     0.1230     7.2500 c3         1 7B6      -0.110400
     22 N13          3.2100     2.4530     5.4830 ns         1 7B6      -0.593900
     23 O12          3.7740     0.3060     5.5470 o          1 7B6      -0.672100
     24 N10          3.6940     1.2520     3.5390 ns         1 7B6      -0.572900
     25 C6           4.0810     0.0000     2.8850 c3         1 7B6       0.018700
     26 C5           3.5710     0.0010     1.4430 c3         1 7B6      -0.079400
     27 C4           2.0410     0.0000     1.4430 c3         1 7B6      -0.144400
     28 N1          -0.4890    -0.0000    -1.3850 nz         1 7B6      -0.812600
     29 H1          -0.3620     0.8840     0.5110 hx         1 7B6       0.109700
     30 H2          -0.3600    -0.8850     0.5110 hx         1 7B6       0.109700
     31 H3           1.8890     0.8860    -0.5090 hc         1 7B6       0.061700
     32 H4           1.8900    -0.8860    -0.5090 hc         1 7B6       0.061700
     33 H7           3.7050     6.6770    12.4340 hc         1 7B6       0.088700
     34 H8           3.8180     1.8600     7.3890 h1         1 7B6       0.077700
     35 H10          5.1700     3.6970     9.8280 hc         1 7B6       0.052700
     36 H11          6.5090     4.7230    10.3410 hc         1 7B6       0.052700
     37 H12          2.5560     1.6220     7.8070 hc         1 7B6       0.087200
     38 H13          1.1790     2.4260     8.2190 hc         1 7B6       0.087200
     39 H14          1.7230     0.4210     5.9160 hc         1 7B6       0.080700
     40 H15          2.9800    -2.3580     8.0300 hc         1 7B6       0.041950
     41 H16          2.5170    -1.8990     6.3800 hc         1 7B6       0.041950
     42 H17          4.4770     6.6890     9.5360 hc         1 7B6       0.172700
     43 H18          5.9110     7.0450    10.7400 hc         1 7B6       0.172700
     44 H19          4.1700     4.0200    11.9160 hc         1 7B6       0.043700
     45 H20          5.5760     5.0070    12.3770 hc         1 7B6       0.043700
     46 H21          2.9840     6.2920     8.4800 h1         1 7B6       0.088700
     47 H22          2.9100     3.4990     9.3690 hn         1 7B6       0.317500
     48 H23          3.4080    -0.1040     7.2970 hc         1 7B6       0.048200
     49 H24          2.6900     0.2040     8.7420 hc         1 7B6       0.048200
     50 H25          0.7430    -3.2460     7.4640 hc         1 7B6       0.032700
     51 H26          0.6450    -2.0660     8.7680 hc         1 7B6       0.032700
     52 H27          0.1490    -1.4980     5.8360 hc         1 7B6       0.041950
     53 H28         -1.1220    -1.6650     7.0640 hc         1 7B6       0.041950
     54 H29         -0.6210     0.7300     6.6730 hc         1 7B6       0.048200
     55 H30         -0.1360     0.2460     8.3070 hc         1 7B6       0.048200
     56 H31          3.1040     3.2840     4.9360 hn         1 7B6       0.324500
     57 H32          3.5790     2.0840     2.9950 hn         1 7B6       0.293500
     58 H33          3.6520    -0.8400     3.4170 h1         1 7B6       0.073700
     59 H35          3.9460    -0.8550     0.8940 hc         1 7B6       0.057700
     60 H36          3.9050     0.9100     0.9580 hc         1 7B6       0.057700
     61 H37          2.0090    -0.8220     2.1480 hc         1 7B6       0.078200
     62 H38          1.6920     0.9050     1.9250 hc         1 7B6       0.078200
     63 H39         -0.1660    -0.8250    -1.8520 hn         1 7B6       0.449800
     64 H40         -1.4890     0.0160    -1.4000 hn         1 7B6       0.449800
     65 C11          3.5670     1.3010     4.8810 c          1 7B6       0.794100
     66 H5           2.0360     6.5840    10.5580 hc         1 7B6       0.054200
     67 O9           6.1680    -1.1990     2.3360 o          1 7B6      -0.820800
     68 H6           2.3080     4.8650    10.9210 hc         1 7B6       0.054200
     69 H131        -0.1500     0.8160    -1.8560 hn         1 7B6       0.449800
     70 O8           6.2600     0.7450     3.3840 o          1 7B6      -0.820800
     71 H9           5.4590     6.0560     8.4820 hc         1 7B6       0.108700
@<TRIPOS>BOND
     1    13     8 1
     2    13     5 1
     3     8    15 1
     4     8     9 1
     5    17     7 2
     6    15     4 1
     7    15    16 1
     8     5     4 1
     9     5    14 1
    10     9    14 1
    11     7    16 1
    12     7     6 1
    13    18    12 1
    14    18    11 1
    15    12    19 1
    16     6    10 1
    17     6    22 1
    18    23    65 2
    19    10    11 1
    20    11    21 1
    21    67     3 1
    22    70     3 1
    23    19    20 1
    24    65    22 1
    25    65    24 1
    26     3    25 1
    27    21    20 1
    28    24    25 1
    29    25    26 1
    30    26    27 1
    31    27     2 1
    32    28     1 1
    33     2     1 1
    34     1    29 1
    35     1    30 1
    36     2    31 1
    37     2    32 1
    38     4    66 1
    39     4    68 1
    40     5    33 1
    41     6    34 1
    42     8    71 1
    43     9    35 1
    44     9    36 1
    45    10    37 1
    46    10    38 1
    47    11    39 1
    48    12    40 1
    49    12    41 1
    50    13    42 1
    51    13    43 1
    52    14    44 1
    53    14    45 1
    54    15    46 1
    55    16    47 1
    56    18    48 1
    57    18    49 1
    58    19    50 1
    59    19    51 1
    60    20    52 1
    61    20    53 1
    62    21    54 1
    63    21    55 1
    64    22    56 1
    65    24    57 1
    66    25    58 1
    67    26    59 1
    68    26    60 1
    69    27    61 1
    70    27    62 1
    71    28    63 1
    72    28    64 1
    73    69    28 1
@<TRIPOS>SUBSTRUCTURE
     1 7B6         1 TEMP              0 ****  ****    0 ROOT
