@<TRIPOS>MOLECULE
molecule
   54    56     1     0     0
SMALL
bcc


@<TRIPOS>ATOM
      1 CAA          0.0000     0.0000     0.0000 c3         1 7B7       0.129700
      2 OAT          1.4290     0.0000     0.0000 os         1 7B7      -0.332900
      3 CAY          2.0450     0.0000     1.2110 ca         1 7B7       0.149100
      4 CAG          1.2910    -0.0040     2.3760 ca         1 7B7      -0.217000
      5 CAE          1.9200    -0.0030     3.6050 ca         1 7B7      -0.089000
      6 CAF          3.3010     0.0020     3.6770 ca         1 7B7      -0.163000
      7 CAH          4.0560     0.0060     2.5180 ca         1 7B7      -0.076000
      8 CAZ          3.4310    -0.0000     1.2860 ca         1 7B7      -0.117300
      9 CBA          4.2540    -0.0030     0.0230 c3         1 7B7       0.172000
     10 CAP          4.4670     1.4440    -0.4670 c3         1 7B7      -0.086400
     11 CAM          5.9290     1.4250    -0.9850 c3         1 7B7      -0.097400
     12 CAQ          6.6030     0.4570     0.0200 c3         1 7B7       0.089000
     13 NBB          5.5830    -0.5720     0.2940 n          1 7B7      -0.494800
     14 C            5.8270    -1.8260     0.7210 c          1 7B7       0.664100
     15 O            4.9070    -2.5910     0.9150 o          1 7B7      -0.603100
     16 CA           7.2460    -2.2780     0.9580 c3         1 7B7       0.062000
     17 N            7.2450    -3.6690     1.4160 ns         1 7B7      -0.597900
     18 CAU          8.4100    -4.2890     1.6920 c          1 7B7       0.783100
     19 OAC          9.4610    -3.6920     1.5620 o          1 7B7      -0.671100
     20 NAS          8.4090    -5.5690     2.1120 ns         1 7B7      -0.600900
     21 CAO          9.6750    -6.2430     2.4130 c3         1 7B7       0.181300
     22 CAX          9.4000    -7.6540     2.8590 ca         1 7B7      -0.128300
     23 CAK          9.3450    -8.6750     1.9280 ca         1 7B7      -0.107500
     24 CAI          9.0930    -9.9700     2.3340 ca         1 7B7      -0.148000
     25 CAW          8.8940   -10.2480     3.6800 ca         1 7B7       0.173600
     26 NAB          8.6390   -11.5570     4.0940 nv         1 7B7      -0.993200
     27 CAJ          8.9490    -9.2220     4.6140 ca         1 7B7      -0.148000
     28 CAL          9.2080    -7.9290     4.2010 ca         1 7B7      -0.107500
     29 H1          -0.3610     0.8760     0.5250 h1         1 7B7       0.041700
     30 H2          -0.3610     0.0170    -1.0210 h1         1 7B7       0.041700
     31 H3          -0.3610    -0.8930     0.4960 h1         1 7B7       0.041700
     32 H4           0.2090    -0.0070     2.3210 ha         1 7B7       0.134000
     33 H5           1.3310    -0.0060     4.5140 ha         1 7B7       0.129000
     34 H6           3.7920     0.0050     4.6430 ha         1 7B7       0.130000
     35 H7           5.1370     0.0080     2.5760 ha         1 7B7       0.135000
     36 H8           3.7570    -0.5810    -0.7460 h1         1 7B7       0.082700
     37 H9           3.7800     1.6790    -1.2720 hc         1 7B7       0.061700
     38 H10          4.3610     2.1450     0.3520 hc         1 7B7       0.061700
     39 H11          6.3720     2.4120    -0.9260 hc         1 7B7       0.058200
     40 H12          5.9760     1.0290    -1.9920 hc         1 7B7       0.058200
     41 H13          6.8610     0.9820     0.9310 h1         1 7B7       0.049200
     42 H14          7.4810     0.0060    -0.4250 h1         1 7B7       0.049200
     43 H15          7.7040    -1.6500     1.7130 h1         1 7B7       0.068700
     44 H16          7.8080    -2.2020     0.0350 h1         1 7B7       0.068700
     45 H17          6.3810    -4.1670     1.5020 hn         1 7B7       0.333500
     46 H18          7.5430    -6.0590     2.2200 hn         1 7B7       0.314500
     47 H19         10.1900    -5.7080     3.2020 h1         1 7B7       0.056700
     48 H20         10.2950    -6.2590     1.5240 h1         1 7B7       0.056700
     49 H21          9.5000    -8.4570     0.8780 ha         1 7B7       0.135000
     50 H22          9.0500   -10.7690     1.6030 ha         1 7B7       0.137000
     51 H23          9.3980   -12.1620     4.3390 hn         1 7B7       0.428800
     52 H24          7.6970   -11.8920     4.1450 hn         1 7B7       0.428800
     53 H25          8.7970    -9.4360     5.6650 ha         1 7B7       0.137000
     54 H26          9.2510    -7.1270     4.9280 ha         1 7B7       0.135000
@<TRIPOS>BOND
     1     1     2 1
     2     2     3 1
     3     4     3 ar
     4     4     5 ar
     5     3     8 ar
     6     5     6 ar
     7     8     9 1
     8     8     7 ar
     9     9    10 1
    10     9    13 1
    11    10    11 1
    12    19    18 2
    13     6     7 ar
    14    16    17 1
    15    16    14 1
    16    18    17 1
    17    18    20 1
    18    20    21 1
    19    21    22 1
    20    13    14 1
    21    13    12 1
    22    11    12 1
    23    14    15 2
    24    22    23 ar
    25    22    28 ar
    26    23    24 ar
    27    28    27 ar
    28    24    25 ar
    29    27    25 ar
    30    25    26 1
    31     1    29 1
    32     1    30 1
    33     1    31 1
    34     4    32 1
    35     5    33 1
    36     6    34 1
    37     7    35 1
    38     9    36 1
    39    10    37 1
    40    10    38 1
    41    11    39 1
    42    11    40 1
    43    12    41 1
    44    12    42 1
    45    16    43 1
    46    16    44 1
    47    17    45 1
    48    20    46 1
    49    21    47 1
    50    21    48 1
    51    23    49 1
    52    24    50 1
    53    26    51 1
    54    26    52 1
    55    27    53 1
    56    28    54 1
@<TRIPOS>SUBSTRUCTURE
     1 7B7         1 TEMP              0 ****  ****    0 ROOT
