@<TRIPOS>MOLECULE
molecule
   66    68     1     0     0
SMALL
bcc


@<TRIPOS>ATOM
      1 OBK          0.0000     0.0000     0.0000 o          1 7B8      -0.828300
      2 CBL          1.3470     0.0000     0.0000 c          1 7B8       0.880200
      3 OBM          1.9550     0.0000     1.0520 o          1 7B8      -0.828300
      4 CBI          2.0860    -0.0010    -1.2790 ca         1 7B8      -0.121600
      5 CBJ          3.4830    -0.0070    -1.2830 ca         1 7B8      -0.005000
      6 CBH          1.3910    -0.0020    -2.4900 ca         1 7B8      -0.038000
      7 CBE          2.0870    -0.0030    -3.6810 ca         1 7B8      -0.180000
      8 CBF          3.4710    -0.0030    -3.6780 ca         1 7B8      -0.064000
      9 CBG          4.1660    -0.0070    -2.4810 ca         1 7B8      -0.339500
     10 SAY          5.9280    -0.0150    -2.4870 sy         1 7B8       1.421200
     11 OAZ          6.3260     0.5300    -3.7380 o          1 7B8      -0.648300
     12 OAE          6.3360     0.5250    -1.2380 o          1 7B8      -0.648300
     13 NAX          6.4110    -1.5990    -2.4920 n7         1 7B8      -0.920100
     14 CAW          6.1080    -2.4540    -3.6430 c3         1 7B8       0.223800
     15 CAV          6.9610    -3.7220    -3.5750 c3         1 7B8       0.045300
     16 NAU          6.6580    -4.5770    -4.7260 na         1 7B8       0.134400
     17 CAT          7.5570    -5.0580    -5.6160 cc         1 7B8      -0.283600
     18 NAD          5.4910    -5.0030    -5.0620 nc         1 7B8      -0.178800
     19 NAC          5.5720    -5.7300    -6.1200 nd         1 7B8      -0.364000
     20 CAS          6.8510    -5.7940    -6.5050 cd         1 7B8       0.261600
     21 CAR          7.3990    -6.5400    -7.6940 c3         1 7B8      -0.101700
     22 CAQ          6.9730    -8.0070    -7.6150 c3         1 7B8       0.111000
     23 NAP          7.5060    -8.7320    -8.7720 ns         1 7B8      -0.581900
     24 CAO          7.2560   -10.0500    -8.9140 c          1 7B8       0.654100
     25 OAB          6.5910   -10.6340    -8.0850 o          1 7B8      -0.609100
     26 CAN          7.8040   -10.7960   -10.1020 c3         1 7B8      -0.147400
     27 CAM          7.3780   -12.2640   -10.0240 c3         1 7B8      -0.136400
     28 CAL          7.9260   -13.0100   -11.2130 c          1 7B8       0.663100
     29 OBD          8.5910   -12.4250   -12.0420 o          1 7B8      -0.603100
     30 NAK          7.6760   -14.3270   -11.3560 ns         1 7B8      -0.482100
     31 CAJ          8.1020   -14.9990   -12.5070 ca         1 7B8       0.077600
     32 CAI          9.2950   -14.6430   -13.1160 ca         1 7B8      -0.035000
     33 CBC          7.3300   -16.0270   -13.0370 ca         1 7B8      -0.095000
     34 CBB          7.7480   -16.6940   -14.1730 ca         1 7B8      -0.091000
     35 CBA          8.9310   -16.3450   -14.7900 ca         1 7B8      -0.143000
     36 CAH          9.7150   -15.3170   -14.2630 ca         1 7B8      -0.197600
     37 CAG         10.9840   -14.9400   -14.9220 c          1 7B8       0.505700
     38 OAF         11.6650   -14.0440   -14.4620 o          1 7B8      -0.411100
     39 NAA         11.3850   -15.5870   -16.0330 nz         1 7B8      -0.678400
     40 H2           4.0280    -0.0110    -0.3470 ha         1 7B8       0.167000
     41 H3           0.3080    -0.0020    -2.4950 ha         1 7B8       0.161000
     42 H4           1.5490    -0.0010    -4.6220 ha         1 7B8       0.115000
     43 H5           4.0120    -0.0030    -4.6160 ha         1 7B8       0.121000
     44 H6           6.9190    -1.9700    -1.7140 hn         1 7B8       0.446800
     45 H7           6.3280    -1.9190    -4.5590 h1         1 7B8       0.071200
     46 H8           5.0580    -2.7240    -3.6260 h1         1 7B8       0.071200
     47 H9           6.7410    -4.2570    -2.6600 h1         1 7B8       0.074200
     48 H10          8.0100    -3.4520    -3.5920 h1         1 7B8       0.074200
     49 H11          8.6270    -4.8870    -5.6170 h4         1 7B8       0.179000
     50 H12          8.4800    -6.4770    -7.6920 hc         1 7B8       0.052200
     51 H13          7.0130    -6.1000    -8.6060 hc         1 7B8       0.052200
     52 H14          7.3590    -8.4470    -6.7040 h1         1 7B8       0.070200
     53 H15          5.8910    -8.0690    -7.6170 h1         1 7B8       0.070200
     54 H16          8.0560    -8.2500    -9.4550 hn         1 7B8       0.311500
     55 H17          8.8850   -10.7330   -10.1010 hc         1 7B8       0.073700
     56 H18          7.4180   -10.3560   -11.0140 hc         1 7B8       0.073700
     57 H19          7.7640   -12.7040    -9.1130 hc         1 7B8       0.090700
     58 H20          6.2960   -12.3270   -10.0260 hc         1 7B8       0.090700
     59 H21          7.2000   -14.8270   -10.6320 hn         1 7B8       0.347500
     60 H22          9.9000   -13.8450   -12.7030 ha         1 7B8       0.203000
     61 H23          6.4000   -16.3060   -12.5570 ha         1 7B8       0.165000
     62 H24          7.1410   -17.4930   -14.5820 ha         1 7B8       0.161000
     63 H25          9.2530   -16.8710   -15.6810 ha         1 7B8       0.106000
     64 H26         12.2560   -15.2070   -16.3450 hn         1 7B8       0.476133
     65 H27         10.6960   -15.4760   -16.7510 hn         1 7B8       0.476133
     66 HAA3        11.5000   -16.5600   -15.8290 hn         1 7B8       0.476133
@<TRIPOS>BOND
     1    38    37 2   
     2    35    34 ar  
     3    35    36 ar  
     4    37    36 1   
     5    37    39 1   
     6    34    33 ar  
     7    36    32 ar  
     8    33    31 ar  
     9    32    31 ar  
    10    31    30 1   
    11    30    28 1   
    12    28    29 2   
    13    28    27 1   
    14    27    26 1   
    15     3     2 1   
    16    26    24 1   
    17     1     2 1   
    18     2     4 1   
    19    24    23 1   
    20    24    25 2   
    21    23    22 1   
    22     4     6 ar  
    23     4     5 ar  
    24     6     7 ar  
    25    22    21 1   
    26     5     9 ar  
    27     7     8 ar  
    28    21    20 1   
    29     9     8 ar  
    30     9    10 1   
    31    17    20 2   
    32    17    16 1   
    33    12    10 2   
    34    20    19 1   
    35    10    11 2   
    36    10    13 1   
    37    14    15 1   
    38    14    13 1   
    39    16    15 1   
    40    16    18 1   
    41    19    18 2   
    42     5    40 1   
    43     6    41 1   
    44     7    42 1   
    45     8    43 1   
    46    13    44 1   
    47    14    45 1   
    48    14    46 1   
    49    15    47 1   
    50    15    48 1   
    51    17    49 1   
    52    21    50 1   
    53    21    51 1   
    54    22    52 1   
    55    22    53 1   
    56    23    54 1   
    57    26    55 1   
    58    26    56 1   
    59    27    57 1   
    60    27    58 1   
    61    30    59 1   
    62    32    60 1   
    63    33    61 1   
    64    34    62 1   
    65    35    63 1   
    66    39    64 1   
    67    39    65 1   
    68    66    39 1   
@<TRIPOS>SUBSTRUCTURE
     1 7B8         1 TEMP              0 ****  ****    0 ROOT
