@<TRIPOS>MOLECULE
7B8
   66    68     1     0     0
SMALL
bcc


@<TRIPOS>ATOM
      1 OBK          0.0000     0.0000     0.0000 o          1 7B8      -0.876300
      2 CBL          1.3470     0.0000     0.0000 c          1 7B8       0.972200
      3 OBM          1.9550     0.0000     1.0520 o          1 7B8      -0.876300
      4 CBI          2.0860    -0.0010    -1.2790 ca         1 7B8      -0.130600
      5 CBJ          3.4830    -0.0070    -1.2830 ca         1 7B8       0.027000
      6 CBH          1.3910    -0.0020    -2.4900 ca         1 7B8      -0.008000
      7 CBE          2.0870    -0.0030    -3.6810 ca         1 7B8      -0.168000
      8 CBF          3.4710    -0.0030    -3.6780 ca         1 7B8      -0.039000
      9 CBG          4.1660    -0.0070    -2.4810 ca         1 7B8      -0.185500
     10 SAY          5.9280    -0.0150    -2.4870 sy         1 7B8       1.038200
     11 OAZ          6.3260     0.5300    -3.7380 o          1 7B8      -0.593800
     12 OAE          6.3360     0.5250    -1.2380 o          1 7B8      -0.593800
     13 NAX          6.4110    -1.5990    -2.4920 n7         1 7B8      -0.593100
     14 CAW          6.1080    -2.4540    -3.6430 c3         1 7B8       0.215800
     15 CAV          6.9610    -3.7220    -3.5750 c3         1 7B8      -0.048700
     16 NAU          6.6580    -4.5770    -4.7260 na         1 7B8       0.608400
     17 CAT          7.5570    -5.0580    -5.6160 cc         1 7B8      -0.448600
     18 NAD          5.4910    -5.0030    -5.0620 nc         1 7B8      -0.350800
     19 NAC          5.5720    -5.7300    -6.1200 nd         1 7B8      -0.315000
     20 CAS          6.8510    -5.7940    -6.5050 cd         1 7B8       0.251600
     21 CAR          7.3990    -6.5400    -7.6940 c3         1 7B8      -0.026700
     22 CAQ          6.9730    -8.0070    -7.6150 c3         1 7B8       0.043000
     23 NAP          7.5060    -8.7320    -8.7720 ns         1 7B8      -0.185900
     24 CAO          7.2560   -10.0500    -8.9140 c          1 7B8       0.563100
     25 OAB          6.5910   -10.6340    -8.0850 o          1 7B8      -0.652100
     26 CAN          7.8040   -10.7960   -10.1020 c3         1 7B8      -0.085400
     27 CAM          7.3780   -12.2640   -10.0240 c3         1 7B8      -0.077400
     28 CAL          7.9260   -13.0100   -11.2130 c          1 7B8       0.572100
     29 OBD          8.5910   -12.4250   -12.0420 o          1 7B8      -0.641100
     30 NAK          7.6760   -14.3270   -11.3560 ns         1 7B8      -0.044100
     31 CAJ          8.1020   -14.9990   -12.5070 ca         1 7B8      -0.064400
     32 CAI          9.2950   -14.6430   -13.1160 ca         1 7B8      -0.001000
     33 CBC          7.3300   -16.0270   -13.0370 ca         1 7B8      -0.058000
     34 CBB          7.7480   -16.6940   -14.1730 ca         1 7B8      -0.055000
     35 CBA          8.9310   -16.3450   -14.7900 ca         1 7B8      -0.116000
     36 CAH          9.7150   -15.3170   -14.2630 ca         1 7B8      -0.216600
     37 CAG         10.9840   -14.9400   -14.9220 c          1 7B8       0.352700
     38 OAF         11.6650   -14.0440   -14.4620 o          1 7B8      -0.421100
     39 NAA         11.3850   -15.5870   -16.0330 nz         1 7B8       0.199600
     40 H2           4.0280    -0.0110    -0.3470 ha         1 7B8       0.140000
     41 H3           0.3080    -0.0020    -2.4950 ha         1 7B8       0.130000
     42 H4           1.5490    -0.0010    -4.6220 ha         1 7B8       0.092000
     43 H5           4.0120    -0.0030    -4.6160 ha         1 7B8       0.100000
     44 H6           6.9190    -1.9700    -1.7140 hn         1 7B8       0.342800
     45 H7           6.3280    -1.9190    -4.5590 h1         1 7B8       0.035200
     46 H8           5.0580    -2.7240    -3.6260 h1         1 7B8       0.035200
     47 H9           6.7410    -4.2570    -2.6600 h1         1 7B8       0.042200
     48 H10          8.0100    -3.4520    -3.5920 h1         1 7B8       0.042200
     49 H11          8.6270    -4.8870    -5.6170 h4         1 7B8       0.159000
     50 H12          8.4800    -6.4770    -7.6920 hc         1 7B8       0.016700
     51 H13          7.0130    -6.1000    -8.6060 hc         1 7B8       0.016700
     52 H14          7.3590    -8.4470    -6.7040 h1         1 7B8       0.041200
     53 H15          5.8910    -8.0690    -7.6170 h1         1 7B8       0.041200
     54 H16          8.0560    -8.2500    -9.4550 hn         1 7B8       0.171500
     55 H17          8.8850   -10.7330   -10.1010 hc         1 7B8       0.038700
     56 H18          7.4180   -10.3560   -11.0140 hc         1 7B8       0.038700
     57 H19          7.7640   -12.7040    -9.1130 hc         1 7B8       0.053700
     58 H20          6.2960   -12.3270   -10.0260 hc         1 7B8       0.053700
     59 H21          7.2000   -14.8270   -10.6320 hn         1 7B8       0.190500
     60 H22          9.9000   -13.8450   -12.7030 ha         1 7B8       0.175000
     61 H23          6.4000   -16.3060   -12.5570 ha         1 7B8       0.129000
     62 H24          7.1410   -17.4930   -14.5820 ha         1 7B8       0.125000
     63 H25          9.2530   -16.8710   -15.6810 ha         1 7B8       0.080000
     64 H26         12.2560   -15.2070   -16.3450 hn         1 7B8       0.245467
     65 H27         10.6960   -15.4760   -16.7510 hn         1 7B8       0.245467
     66 HAA3        11.5000   -16.5600   -15.8290 hn         1 7B8       0.245467
@<TRIPOS>BOND
     1     1     2 1   
     2     2     3 1   
     3     2     4 1   
     4     4     5 ar  
     5     4     6 ar  
     6     5     9 ar  
     7     5    40 1   
     8     6     7 ar  
     9     6    41 1   
    10     7     8 ar  
    11     7    42 1   
    12     8     9 ar  
    13     8    43 1   
    14     9    10 1   
    15    10    11 2   
    16    10    12 2   
    17    10    13 1   
    18    13    14 1   
    19    13    44 1   
    20    14    15 1   
    21    14    45 1   
    22    14    46 1   
    23    15    16 1   
    24    15    47 1   
    25    15    48 1   
    26    16    17 1   
    27    16    18 1   
    28    17    20 2   
    29    17    49 1   
    30    18    19 2   
    31    19    20 1   
    32    20    21 1   
    33    21    22 1   
    34    21    50 1   
    35    21    51 1   
    36    22    23 1   
    37    22    52 1   
    38    22    53 1   
    39    23    24 1   
    40    23    54 1   
    41    24    25 2   
    42    24    26 1   
    43    26    27 1   
    44    26    55 1   
    45    26    56 1   
    46    27    28 1   
    47    27    57 1   
    48    27    58 1   
    49    28    29 2   
    50    28    30 1   
    51    30    31 1   
    52    30    59 1   
    53    31    32 ar  
    54    31    33 ar  
    55    32    36 ar  
    56    32    60 1   
    57    33    34 ar  
    58    33    61 1   
    59    34    35 ar  
    60    34    62 1   
    61    35    36 ar  
    62    35    63 1   
    63    36    37 1   
    64    37    38 2   
    65    37    39 1   
    66    39    64 1   
    67    39    65 1   
    68    39    66 1   
@<TRIPOS>SUBSTRUCTURE
     1 7B8         1 TEMP              0 ****  ****    0 ROOT
