@<TRIPOS>MOLECULE
molecule
   47    48     1     0     0
SMALL
bcc


@<TRIPOS>ATOM
      1 O3P          0.0000     0.0000     0.0000 o          1 7B9      -0.900500
      2 P            1.6100     0.0000     0.0000 p5         1 7B9       1.163900
      3 O1P          2.1030     0.0000     1.3960 o          1 7B9      -0.900500
      4 O2P          2.1460    -1.3150    -0.7580 o          1 7B9      -0.900500
      5 O4P          2.1470     1.3140    -0.7590 os         1 7B9      -0.575200
      6 C5A          3.5330     1.6560    -0.8360 c3         1 7B9       0.244700
      7 C5           3.6900     2.9390    -1.6120 ca         1 7B9      -0.134600
      8 C6           2.5810     3.5910    -2.1170 ca         1 7B9       0.446200
      9 N1           2.7080     4.7140    -2.7980 nb         1 7B9      -0.699000
     10 C4           4.9480     3.4780    -1.8240 ca         1 7B9      -0.131300
     11 C4A          6.1810     2.7990    -1.2860 c3         1 7B9       0.290100
     12 C3           5.0450     4.6640    -2.5460 ca         1 7B9      -0.029200
     13 O3           6.2580     5.2310    -2.7800 oh         1 7B9      -0.525100
     14 C2           3.8880     5.2580    -3.0250 ca         1 7B9       0.350600
     15 C2A          3.9770     6.5420    -3.8090 c3         1 7B9      -0.127400
     16 N2           6.6940     1.8570    -2.2840 nu         1 7B9      -0.778000
     17 C7           7.8430     1.1010    -2.0090 cc         1 7B9       0.071800
     18 C8           8.4830     1.2300    -0.8210 cd         1 7B9      -0.093000
     19 N9           9.5960     0.4990    -0.5520 na         1 7B9      -0.552800
     20 C10         10.1010    -0.3770    -1.4520 cc         1 7B9       0.119800
     21 C11          9.5100    -0.5540    -2.6540 cd         1 7B9      -0.339200
     22 C12          8.3470     0.1850    -2.9680 c          1 7B9       0.570500
     23 O13          7.7900     0.0400    -4.0480 o          1 7B9      -0.599100
     24 C14         11.3390    -1.1660    -1.1090 c3         1 7B9      -0.045200
     25 H3           3.9280     1.7880     0.1640 h1         1 7B9       0.041200
     26 H4           4.0740     0.8620    -1.3370 h1         1 7B9       0.041200
     27 H5           1.5940     3.1780    -1.9470 h4         1 7B9       0.087100
     28 H6           6.9380     3.5430    -1.0700 h1         1 7B9       0.041700
     29 H7           5.9310     2.2640    -0.3780 h1         1 7B9       0.041700
     30 H8           6.3940     5.9440    -2.1770 ho         1 7B9       0.397000
     31 H9           4.6700     6.4150    -4.6330 hc         1 7B9       0.035033
     32 H10          2.9980     6.7970    -4.1970 hc         1 7B9       0.035033
     33 H11          4.3270     7.3370    -3.1620 hc         1 7B9       0.035033
     34 H12          6.2400     1.7720    -3.1720 hn         1 7B9       0.471800
     35 H13          8.1040     1.9230    -0.0790 h4         1 7B9       0.159000
     36 H14          9.9190    -1.2590    -3.3680 ha         1 7B9       0.148000
     37 H16         11.3330    -1.4050    -0.0520 hc         1 7B9       0.054700
     38 H17         11.3550    -2.0820    -1.6870 hc         1 7B9       0.054700
     39 H19         10.0530     0.6110     0.3320 hn         1 7B9       0.434800
     40 C1          12.5810    -0.3340    -1.4360 c3         1 7B9      -0.080400
     41 C9          13.8370    -1.1340    -1.0880 c3         1 7B9       0.137400
     42 O1          14.9970    -0.3580    -1.3950 oh         1 7B9      -0.612800
     43 H15         12.5860    -0.0940    -2.4930 hc         1 7B9       0.060200
     44 H18         12.5650     0.5820    -0.8580 hc         1 7B9       0.060200
     45 H20         13.8530    -2.0510    -1.6660 h1         1 7B9       0.017700
     46 H21         13.8320    -1.3740    -0.0320 h1         1 7B9       0.017700
     47 H22         15.7720    -0.8550    -1.1900 ho         1 7B9       0.395000
@<TRIPOS>BOND
     1     9     8 ar  
     2     9    14 ar  
     3     8     7 ar  
     4    15    14 1   
     5    14    12 ar  
     6     7     6 1   
     7     7    10 ar  
     8     6     5 1   
     9    12    10 ar  
    10    12    13 1   
    11     3     2 1   
    12    10    11 1   
    13     5     2 1   
    14     2     4 1   
    15     2     1 1   
    16    11    16 1   
    17    16    17 1   
    18    18    17 2   
    19    18    19 1   
    20    17    22 1   
    21    19    20 1   
    22    22    23 2   
    23    22    21 1   
    24    20    21 2   
    25    20    24 1   
    26     6    25 1   
    27     6    26 1   
    28     8    27 1   
    29    11    28 1   
    30    11    29 1   
    31    13    30 1   
    32    15    31 1   
    33    15    32 1   
    34    15    33 1   
    35    16    34 1   
    36    18    35 1   
    37    21    36 1   
    38    24    37 1   
    39    24    38 1   
    40    19    39 1   
    41    24    40 1   
    42    40    41 1   
    43    41    42 1   
    44    40    43 1   
    45    40    44 1   
    46    41    45 1   
    47    41    46 1   
    48    42    47 1   
@<TRIPOS>SUBSTRUCTURE
     1 7B9         1 TEMP              0 ****  ****    0 ROOT
