@<TRIPOS>MOLECULE
molecule
   43    44     1     0     0
SMALL
bcc


@<TRIPOS>ATOM
      1 C4           0.0000     0.0000     0.0000 ca         1 7BA       0.069100
      2 C5           1.3910     0.0000     0.0000 ca         1 7BA       0.158600
      3 C6           2.0850     0.0000     1.1980 ca         1 7BA      -0.257500
      4 C7          -2.7120    -0.1160     2.4640 c3         1 7BA       0.125200
      5 C8          -0.9970     1.2820    -1.7390 c3         1 7BA       0.136700
      6 C9           3.4940     0.1110    -1.1070 c3         1 7BA       0.125200
      7 C3          -0.6990     0.0010     1.2030 ca         1 7BA       0.158600
      8 C7'          6.1590    -4.5270    -0.4040 c3         1 7BA       0.122700
      9 C4'          4.3910    -3.4460     0.7620 ca         1 7BA       0.162100
     10 C3'          3.0420    -3.2760     1.0720 ca         1 7BA       0.068100
     11 C2'          2.6660    -2.3890     2.0610 ca         1 7BA      -0.090000
     12 O3'          2.0960    -3.9840     0.3970 oh         1 7BA      -0.497100
     13 C5'          5.3590    -2.7300     1.4510 ca         1 7BA      -0.243000
     14 C6'          4.9930    -1.8460     2.4440 ca         1 7BA      -0.054000
     15 C1'          3.6410    -1.6620     2.7510 ca         1 7BA      -0.206800
     16 C1B          3.2480    -0.7180     3.8120 ce         1 7BA      -0.184200
     17 C1           1.3850     0.0010     2.4080 ca         1 7BA      -0.041800
     18 C2          -0.0120     0.0020     2.4040 ca         1 7BA      -0.257500
     19 O3          -2.0590     0.0030     1.1980 os         1 7BA      -0.308400
     20 O4          -0.6790     0.0060    -1.1790 os         1 7BA      -0.323900
     21 O5           2.0710    -0.0020    -1.1780 os         1 7BA      -0.308400
     22 H1           3.1680     0.0000     1.1970 ha         1 7BA       0.148500
     23 H2          -3.7850    -0.1420     2.3160 h1         1 7BA       0.043867
     24 H3          -2.3920    -1.0290     2.9520 h1         1 7BA       0.043867
     25 H4          -2.4540     0.7340     3.0850 h1         1 7BA       0.043867
     26 H5          -0.5150     1.3820    -2.7050 h1         1 7BA       0.036033
     27 H6          -0.6460     2.0640    -1.0780 h1         1 7BA       0.036033
     28 H7          -2.0700     1.3660    -1.8600 h1         1 7BA       0.036033
     29 H8           3.8900     0.3180    -2.0940 h1         1 7BA       0.043867
     30 H9           3.7590     0.9190    -0.4360 h1         1 7BA       0.043867
     31 H10          3.9120    -0.8170    -0.7370 h1         1 7BA       0.043867
     32 H11          6.6220    -3.5990    -0.7170 h1         1 7BA       0.047700
     33 H12          6.6100    -4.8600     0.5230 h1         1 7BA       0.047700
     34 H13          6.3060    -5.2800    -1.1680 h1         1 7BA       0.047700
     35 H14          1.6180    -2.2530     2.3000 ha         1 7BA       0.156000
     36 H15          1.9110    -4.7840     0.8610 ho         1 7BA       0.421000
     37 H16          6.4060    -2.8720     1.2140 ha         1 7BA       0.147000
     38 H17          5.7510    -1.2870     2.9780 ha         1 7BA       0.155000
     39 H18          3.8090    -0.3710     2.9520 ha         1 7BA       0.292000
     40 H19          1.4040    -0.7810     3.4670 ha         1 7BA       0.276000
     41 H20         -0.5570     0.0030     3.3400 ha         1 7BA       0.148500
     42 C1A          2.1200     0.0020     3.6840 cf         1 7BA      -0.308200
     43 O4'          4.7580    -4.3190    -0.2120 os         1 7BA      -0.302900
@<TRIPOS>BOND
     1     6    21 1
     2    21     2 1
     3     5    20 1
     4     2     1 ar
     5     2     3 ar
     6    20     1 1
     7     1     7 ar
     8     3    17 ar
     9     7    19 1
    10     7    18 ar
    11    17    18 ar
    12    17    42 1
    13    19     4 1
    14    42    16 2
    15    16    15 1
    16    14    15 ar
    17    14    13 ar
    18    15    11 ar
    19    13     9 ar
    20    11    10 ar
    21     9    10 ar
    22     9    43 1
    23    10    12 1
    24    43     8 1
    25     3    22 1
    26     4    23 1
    27     4    24 1
    28     4    25 1
    29     5    26 1
    30     5    27 1
    31     5    28 1
    32     6    29 1
    33     6    30 1
    34     6    31 1
    35     8    32 1
    36     8    33 1
    37     8    34 1
    38    11    35 1
    39    12    36 1
    40    13    37 1
    41    14    38 1
    42    16    39 1
    43    42    40 1
    44    18    41 1
@<TRIPOS>SUBSTRUCTURE
     1 7BA         1 TEMP              0 ****  ****    0 ROOT
