@<TRIPOS>MOLECULE
molecule
   17    16     1     0     0
SMALL
bcc


@<TRIPOS>ATOM
      1 O3           0.0000     0.0000     0.0000 o          1 7BC      -0.564000
      2 C3           1.2150     0.0000     0.0000 c          1 7BC       0.626300
      3 C4           1.9490     0.0000     1.2730 ce         1 7BC      -0.200200
      4 C5           1.2840     0.0010     2.4250 c2         1 7BC      -0.166000
      5 O2           1.8890    -0.0070    -1.1670 os         1 7BC      -0.437900
      6 C2           1.0990    -0.0130    -2.3860 c3         1 7BC       0.154400
      7 C1           2.0310    -0.0200    -3.5990 c3         1 7BC      -0.185400
      8 C            1.2100    -0.0260    -4.8630 c          1 7BC       0.895600
      9 O1           1.8200    -0.0330    -6.0580 o          1 7BC      -0.847300
     10 O            0.0030    -0.0260    -4.8000 o          1 7BC      -0.847300
     11 H1           3.0330    -0.0010     1.2730 ha         1 7BC       0.134000
     12 H3           1.8260     0.0010     3.3630 ha         1 7BC       0.122500
     13 H4           0.2010     0.0010     2.4250 ha         1 7BC       0.122500
     14 H6           0.4740    -0.8980    -2.4060 h1         1 7BC       0.057700
     15 H7           0.4740     0.8710    -2.4150 h1         1 7BC       0.057700
     16 H8           2.6560     0.8650    -3.5790 hc         1 7BC       0.039700
     17 H9           2.6560    -0.9040    -3.5690 hc         1 7BC       0.039700
@<TRIPOS>BOND
     1     4     3 2
     2     3     2 1
     3     1     2 2
     4     2     5 1
     5     5     6 1
     6     6     7 1
     7     7     8 1
     8     8    10 1
     9     8     9 1
    10     3    11 1
    11     4    12 1
    12     4    13 1
    13     6    14 1
    14     6    15 1
    15     7    16 1
    16     7    17 1
@<TRIPOS>SUBSTRUCTURE
     1 7BC         1 TEMP              0 ****  ****    0 ROOT
