@<TRIPOS>MOLECULE
molecule
   32    34     1     0     0
SMALL
bcc


@<TRIPOS>ATOM
      1 C1           0.0000     0.0000     0.0000 ca         1 7BD      -0.113400
      2 C2           1.4830     0.0000     0.0000 cc         1 7BD       0.433500
      3 C3           1.9150     0.0000     1.4190 ca         1 7BD      -0.113400
      4 C4           0.7610    -0.0010     2.2180 cp         1 7BD      -0.031500
      5 C5          -0.4290    -0.0000     1.3380 cp         1 7BD      -0.031500
      6 C6           0.8900    -0.0000     3.6060 ca         1 7BD      -0.115000
      7 C10         -1.7930    -0.0010     1.6180 ca         1 7BD      -0.115000
      8 C11         -0.9360     0.0050    -1.0280 ca         1 7BD      -0.079500
      9 C12         -2.2860     0.0110    -0.7310 ca         1 7BD      -0.144500
     10 C13         -2.7100    -0.0000     0.5860 ca         1 7BD      -0.139500
     11 C16          4.3890    -0.0010    -2.1160 c3         1 7BD       0.143400
     12 C17          5.8910    -0.0000    -1.8220 c3         1 7BD      -0.181400
     13 C18          6.6560    -0.0010    -3.1210 c          1 7BD       0.896600
     14 C7           3.1720    -0.0000     2.0140 ca         1 7BD      -0.079500
     15 C8           3.2820     0.0000     3.3910 ca         1 7BD      -0.144500
     16 C9           2.1450    -0.0010     4.1820 ca         1 7BD      -0.139500
     17 N14          2.2560     0.0000    -1.0450 n2         1 7BD      -0.373200
     18 O15          3.6640    -0.0000    -0.8840 os         1 7BD      -0.203300
     19 O19          7.9980    -0.0010    -3.1090 o          1 7BD      -0.846800
     20 O20          6.0620    -0.0020    -4.1730 o          1 7BD      -0.846800
     21 H6           0.1080    -0.0020     4.3540 ha         1 7BD       0.124000
     22 H10         -2.1340    -0.0100     2.6460 ha         1 7BD       0.124000
     23 H11         -0.6080     0.0140    -2.0600 ha         1 7BD       0.154500
     24 H12         -3.0140     0.0110    -1.5330 ha         1 7BD       0.127500
     25 H13         -3.7710     0.0040     0.8090 ha         1 7BD       0.120500
     26 H16          4.1330    -0.8860    -2.6860 h1         1 7BD       0.047700
     27 H16A         4.1330     0.8830    -2.6880 h1         1 7BD       0.047700
     28 H17          6.1480    -0.8840    -1.2510 hc         1 7BD       0.038700
     29 H17A         6.1470     0.8850    -1.2530 hc         1 7BD       0.038700
     30 H7           4.2050     0.0020     1.6880 ha         1 7BD       0.154500
     31 H8           4.2340    -0.0010     3.9080 ha         1 7BD       0.127500
     32 H9           2.2520    -0.0030     5.2600 ha         1 7BD       0.120500
@<TRIPOS>BOND
     1     1     5 ar  
     2     2     1 1   
     3     2     3 1   
     4     3     4 ar  
     5     4     6 ar  
     6     5     4 1   
     7     5     7 ar  
     8     6    21 1   
     9     7    22 1   
    10     8     1 ar  
    11     8     9 ar  
    12     8    23 1   
    13     9    10 ar  
    14     9    24 1   
    15    10     7 ar  
    16    10    25 1   
    17    11    18 1   
    18    11    26 1   
    19    11    27 1   
    20    12    11 1   
    21    12    28 1   
    22    12    29 1   
    23    13    12 1   
    24    14     3 ar  
    25    14    15 ar  
    26    14    30 1   
    27    15    16 ar  
    28    15    31 1   
    29    16     6 ar  
    30    16    32 1   
    31    17     2 2   
    32    18    17 1   
    33    19    13 1   
    34    20    13 1   
@<TRIPOS>SUBSTRUCTURE
     1 7BD         1 TEMP              0 ****  ****    0 ROOT
