@<TRIPOS>MOLECULE
7BD
   32    34     1     0     0
SMALL
bcc


@<TRIPOS>ATOM
      1 C1           0.0000     0.0000     0.0000 ca         1 7BD      -0.114400
      2 C2           1.4830     0.0000     0.0000 cc         1 7BD       0.406500
      3 C3           1.9150     0.0000     1.4190 ca         1 7BD      -0.114400
      4 C4           0.7610    -0.0010     2.2180 cp         1 7BD      -0.030500
      5 C5          -0.4290    -0.0000     1.3380 cp         1 7BD      -0.030500
      6 C6           0.8900    -0.0000     3.6060 ca         1 7BD      -0.086000
      7 C10         -1.7930    -0.0010     1.6180 ca         1 7BD      -0.086000
      8 C11         -0.9360     0.0050    -1.0280 ca         1 7BD      -0.054000
      9 C12         -2.2860     0.0110    -0.7310 ca         1 7BD      -0.121500
     10 C13         -2.7100    -0.0000     0.5860 ca         1 7BD      -0.119500
     11 C16          4.3890    -0.0010    -2.1160 c3         1 7BD       0.217400
     12 C17          5.8910    -0.0000    -1.8220 c3         1 7BD      -0.138400
     13 C18          6.6560    -0.0010    -3.1210 c          1 7BD       0.985600
     14 C7           3.1720    -0.0000     2.0140 ca         1 7BD      -0.054000
     15 C8           3.2820     0.0000     3.3910 ca         1 7BD      -0.121500
     16 C9           2.1450    -0.0010     4.1820 ca         1 7BD      -0.119500
     17 N14          2.2560     0.0000    -1.0450 n2         1 7BD      -0.311200
     18 O15          3.6640    -0.0000    -0.8840 os         1 7BD      -0.196300
     19 O19          7.9980    -0.0010    -3.1090 o          1 7BD      -0.897800
     20 O20          6.0620    -0.0020    -4.1730 o          1 7BD      -0.897800
     21 H6           0.1080    -0.0020     4.3540 ha         1 7BD       0.097500
     22 H10         -2.1340    -0.0100     2.6460 ha         1 7BD       0.097500
     23 H11         -0.6080     0.0140    -2.0600 ha         1 7BD       0.123500
     24 H12         -3.0140     0.0110    -1.5330 ha         1 7BD       0.100500
     25 H13         -3.7710     0.0040     0.8090 ha         1 7BD       0.094500
     26 H16          4.1330    -0.8860    -2.6860 h1         1 7BD       0.013700
     27 H16A         4.1330     0.8830    -2.6880 h1         1 7BD       0.013700
     28 H17          6.1480    -0.8840    -1.2510 hc         1 7BD       0.011700
     29 H17A         6.1470     0.8850    -1.2530 hc         1 7BD       0.011700
     30 H7           4.2050     0.0020     1.6880 ha         1 7BD       0.123500
     31 H8           4.2340    -0.0010     3.9080 ha         1 7BD       0.100500
     32 H9           2.2520    -0.0030     5.2600 ha         1 7BD       0.094500
@<TRIPOS>BOND
     1     1     2 1   
     2     1     5 ar  
     3     1     8 ar  
     4     2     3 1   
     5     2    17 2   
     6     3     4 ar  
     7     3    14 ar  
     8     4     5 1   
     9     4     6 ar  
    10     5     7 ar  
    11     6    16 ar  
    12     6    21 1   
    13     7    10 ar  
    14     7    22 1   
    15     8     9 ar  
    16     8    23 1   
    17     9    10 ar  
    18     9    24 1   
    19    10    25 1   
    20    11    12 1   
    21    11    18 1   
    22    11    26 1   
    23    11    27 1   
    24    12    13 1   
    25    12    28 1   
    26    12    29 1   
    27    13    19 1   
    28    13    20 1   
    29    14    15 ar  
    30    14    30 1   
    31    15    16 ar  
    32    15    31 1   
    33    16    32 1   
    34    17    18 1   
@<TRIPOS>SUBSTRUCTURE
     1 7BD         1 TEMP              0 ****  ****    0 ROOT
