@<TRIPOS>MOLECULE
molecule
   59    63     1     0     0
SMALL
bcc


@<TRIPOS>ATOM
      1 C10          0.0000     0.0000     0.0000 ca         1 7BE      -0.152000
      2 C11          1.3880     0.0000     0.0000 ca         1 7BE       0.163100
      3 C13          3.4230    -0.3470    -1.1970 c3         1 7BE       0.353600
      4 C14          4.0400    -0.0000    -2.5560 c3         1 7BE      -0.093400
      5 C15          3.2390    -0.7160    -3.6460 c3         1 7BE      -0.021100
      6 C16          3.0490    -2.1630    -3.2680 ca         1 7BE      -0.179300
      7 C17          2.6970    -3.0630    -4.2540 ca         1 7BE      -0.078000
      8 C18          2.5090    -4.4120    -3.9400 ca         1 7BE      -0.124600
      9 C19          2.1350    -5.3730    -4.9930 c          1 7BE       0.885200
     10 C22          2.6790    -4.8450    -2.6220 ca         1 7BE      -0.070000
     11 C23          3.0310    -3.9430    -1.6460 ca         1 7BE      -0.179000
     12 C24          3.2190    -2.5980    -1.9630 ca         1 7BE       0.108100
     13 C26          4.1390     0.4400    -0.0960 c3         1 7BE      -0.094400
     14 C27          3.5760    -0.0050     1.2580 c3         1 7BE      -0.025100
     15 C28          2.0690     0.0000     1.2050 ca         1 7BE      -0.150300
     16 C29          1.3590     0.0010     2.3910 ca         1 7BE      -0.100000
     17 C30         -0.0300     0.0020     2.3890 ca         1 7BE      -0.102300
     18 C02         -0.7340    -0.0050     3.7210 c3         1 7BE      -0.010700
     19 C03         -0.0240     0.9610     4.6720 c3         1 7BE      -0.081100
     20 C04         -2.1900     0.4270     3.5600 c3         1 7BE      -0.070400
     21 C05         -2.8240    -0.4150     2.4460 c3         1 7BE      -0.069400
     22 C06         -2.2140     0.0120     1.1130 c3         1 7BE      -0.016700
     23 C07         -2.6670    -0.9540     0.0180 c3         1 7BE      -0.081600
     24 C08         -2.6940     1.4240     0.7690 c3         1 7BE      -0.081600
     25 C09         -0.7100     0.0090     1.1920 ca         1 7BE      -0.037300
     26 O12          2.0420     0.0050    -1.1910 os         1 7BE      -0.331900
     27 O20          1.9550    -6.6730    -4.6870 o          1 7BE      -0.839800
     28 O21          1.9890    -4.9930    -6.1380 o          1 7BE      -0.839800
     29 O25          3.5760    -1.7460    -0.9670 os         1 7BE      -0.345900
     30 H1          -0.5350    -0.0050    -0.9420 ha         1 7BE       0.149000
     31 H2           3.9700     1.0700    -2.7120 hc         1 7BE       0.056200
     32 H3           5.0630    -0.3550    -2.5790 hc         1 7BE       0.056200
     33 H4           2.2650    -0.2470    -3.7280 hc         1 7BE       0.053700
     34 H5           3.7940    -0.6680    -4.5750 hc         1 7BE       0.053700
     35 H6           2.5650    -2.7230    -5.2740 ha         1 7BE       0.148000
     36 H7           2.5350    -5.8890    -2.3700 ha         1 7BE       0.159000
     37 H8           3.1630    -4.2790    -0.6240 ha         1 7BE       0.119000
     38 H9           3.9610     1.5000    -0.2330 hc         1 7BE       0.057700
     39 H10          5.2010     0.2340    -0.1330 hc         1 7BE       0.057700
     40 H11          3.9240    -1.0060     1.4800 hc         1 7BE       0.055200
     41 H12          3.9110     0.6790     2.0290 hc         1 7BE       0.055200
     42 H13          1.8930    -0.0010     3.3330 ha         1 7BE       0.126000
     43 H14         -0.7650    -2.1430     3.5090 hc         1 7BE       0.034200
     44 H15         -1.5130    -1.5480     4.9980 hc         1 7BE       0.034200
     45 H16          0.2490    -1.5580     4.8360 hc         1 7BE       0.034200
     46 H17          0.2020     1.8830     4.1480 hc         1 7BE       0.034200
     47 H18         -0.6670     1.1740     5.5170 hc         1 7BE       0.034200
     48 H19          0.8970     0.5110     5.0230 hc         1 7BE       0.034200
     49 H20         -2.7230     0.2620     4.4880 hc         1 7BE       0.040200
     50 H21         -2.2310     1.4750     3.2910 hc         1 7BE       0.040200
     51 H22         -3.8940    -0.2460     2.4270 hc         1 7BE       0.044700
     52 H23         -2.6180    -1.4640     2.6210 hc         1 7BE       0.044700
     53 H24         -2.4670    -0.5180    -0.9540 hc         1 7BE       0.037200
     54 H25         -2.1260    -1.8880     0.1130 hc         1 7BE       0.037200
     55 H26         -3.7290    -1.1410     0.1180 hc         1 7BE       0.037200
     56 H27         -2.6730     1.5610    -0.3060 hc         1 7BE       0.037200
     57 H28         -2.0420     2.1520     1.2380 hc         1 7BE       0.037200
     58 H29         -3.7060     1.5600     1.1300 hc         1 7BE       0.037200
     59 C01         -0.6870    -1.4160     4.3090 c3         1 7BE      -0.081100
@<TRIPOS>BOND
     1    21    20 1
     2    21    22 1
     3    23    22 1
     4    20    18 1
     5    24    22 1
     6    22    25 1
     7    59    18 1
     8    18    19 1
     9    18    17 1
    10    25    17 ar
    11    25     1 ar
    12    17    16 ar
    13     1     2 ar
    14    16    15 ar
    15     2    15 ar
    16     2    26 1
    17    28     9 1
    18    15    14 1
    19     9    27 1
    20     9     8 1
    21    26     3 1
    22    10     8 ar
    23    10    11 ar
    24     8     7 ar
    25    11    12 ar
    26     7     6 ar
    27    12     6 ar
    28    12    29 1
    29     6     5 1
    30    29     3 1
    31    14    13 1
    32     3    13 1
    33     3     4 1
    34     5     4 1
    35     1    30 1
    36     4    31 1
    37     4    32 1
    38     5    33 1
    39     5    34 1
    40     7    35 1
    41    10    36 1
    42    11    37 1
    43    13    38 1
    44    13    39 1
    45    14    40 1
    46    14    41 1
    47    16    42 1
    48    59    43 1
    49    59    44 1
    50    59    45 1
    51    19    46 1
    52    19    47 1
    53    19    48 1
    54    20    49 1
    55    20    50 1
    56    21    51 1
    57    21    52 1
    58    23    53 1
    59    23    54 1
    60    23    55 1
    61    24    56 1
    62    24    57 1
    63    24    58 1
@<TRIPOS>SUBSTRUCTURE
     1 7BE         1 TEMP              0 ****  ****    0 ROOT
