@<TRIPOS>MOLECULE
molecule
   44    48     1     0     0
SMALL
bcc


@<TRIPOS>ATOM
      1 C1           0.0000     0.0000     0.0000 ca         1 7BF       0.150100
      2 C2           1.3680     0.0000     0.0000 ca         1 7BF      -0.221000
      3 C3           2.0840     0.0000     1.1940 ca         1 7BF      -0.090000
      4 O4          -0.6850    -0.0000    -1.1720 os         1 7BF      -0.321900
      5 C7           0.0450    -0.0010     2.4410 ca         1 7BF      -0.136300
      6 C8          -0.6640    -0.0010     3.6530 ca         1 7BF       0.436200
      7 C10         -2.6860    -0.0130     2.5230 ca         1 7BF       0.400200
      8 C11         -2.0940    -0.0070     1.2970 ca         1 7BF      -0.215300
      9 C12         -0.8530    -0.0010    -3.5830 c3         1 7BF       0.240500
     10 C13         -1.8670    -1.1570    -3.4590 c3         1 7BF      -0.091400
     11 C14         -3.1780    -0.5290    -4.0020 c3         1 7BF      -0.098400
     12 C15         -3.0550     0.9310    -3.4990 c3         1 7BF       0.221800
     13 C20          0.7770     3.9920    -3.9770 cc         1 7BF       0.525200
     14 C21          0.2760     2.6990    -3.8510 cc         1 7BF      -0.447300
     15 C22         -1.3640     4.8630    -3.8940 cd         1 7BF       0.489500
     16 N23         -1.9010     3.6140    -3.7680 na         1 7BF      -0.022800
     17 N26         -2.3730     5.7270    -3.8860 nc         1 7BF      -0.450300
     18 C5           1.4470    -0.0000     2.3990 ca         1 7BF      -0.139000
     19 C6          -0.6890    -0.0060     1.2260 ca         1 7BF      -0.029000
     20 N9          -1.9770    -0.0030     3.6440 nb         1 7BF      -0.683000
     21 N16         -1.6210     1.2530    -3.6200 nh         1 7BF      -0.700000
     22 C17          0.0860    -0.0010    -2.3750 c3         1 7BF       0.111400
     23 C18         -1.0890     2.5160    -3.7450 cd         1 7BF       0.361300
     24 N19         -0.0390     5.0250    -3.9950 nd         1 7BF      -0.716000
     25 N24         -3.2890     3.7850    -3.6860 nd         1 7BF      -0.639100
     26 C25         -3.5210     5.0730    -3.7620 cc         1 7BF       0.595200
     27 H1           1.9020     0.0000    -0.9430 ha         1 7BF       0.133000
     28 H2           3.1670     0.0000     1.1650 ha         1 7BF       0.133000
     29 H3          -0.1280     0.0080     4.5950 h4         1 7BF       0.029100
     30 H4          -3.7680    -0.0140     2.5850 h4         1 7BF       0.022100
     31 H5          -2.6920    -0.0160     0.3940 ha         1 7BF       0.149000
     32 H6          -0.2840    -0.1090    -4.4980 h1         1 7BF       0.071700
     33 H7          -1.9850    -1.4520    -2.4230 hc         1 7BF       0.068200
     34 H8          -1.5640    -1.9980    -4.0720 hc         1 7BF       0.068200
     35 H9          -3.2020    -0.5630    -5.0850 hc         1 7BF       0.061700
     36 H10         -4.0450    -1.0140    -3.5710 hc         1 7BF       0.061700
     37 H11         -3.3690     0.9990    -2.4640 h1         1 7BF       0.074200
     38 H12         -3.6420     1.5940    -4.1230 h1         1 7BF       0.074200
     39 H14          0.9470     1.8490    -3.8360 ha         1 7BF       0.154000
     40 H15          2.0200    -0.0000     3.3180 ha         1 7BF       0.138000
     41 H16          0.7110     0.8840    -2.4040 h1         1 7BF       0.052200
     42 H17          0.7110    -0.8850    -2.4030 h1         1 7BF       0.052200
     43 H18         -4.5010     5.5330    -3.7290 h5         1 7BF       0.089800
     44 H13          1.8460     4.1490    -4.0600 h4         1 7BF       0.037100
@<TRIPOS>BOND
     1    10     9 1   
     2    10    11 1   
     3     7     8 ar  
     4     7    20 ar  
     5    13    24 2   
     6    13    14 1   
     7     9    21 1   
     8     9    22 1   
     9    24    15 1   
    10    14    23 2   
    11    11    12 1   
    12    15    17 2   
    13    15    16 1   
    14    23    21 1   
    15    23    16 1   
    16    21    12 1   
    17    17    26 1   
    18    16    25 1   
    19     8    19 ar  
    20    26    25 2   
    21    20     6 ar  
    22     4    22 1   
    23     4     1 1   
    24    19     1 ar  
    25    19     5 ar  
    26     1     2 ar  
    27     6     5 ar  
    28     5    18 ar  
    29     2     3 ar  
    30    18     3 ar  
    31     2    27 1   
    32     3    28 1   
    33     6    29 1   
    34     7    30 1   
    35     8    31 1   
    36     9    32 1   
    37    10    33 1   
    38    10    34 1   
    39    11    35 1   
    40    11    36 1   
    41    12    37 1   
    42    12    38 1   
    43    13    44 1   
    44    14    39 1   
    45    18    40 1   
    46    22    41 1   
    47    22    42 1   
    48    26    43 1   
@<TRIPOS>SUBSTRUCTURE
     1 7BF         1 TEMP              0 ****  ****    0 ROOT
