@<TRIPOS>MOLECULE
7BF
   44    48     1     0     0
SMALL
bcc


@<TRIPOS>ATOM
      1 C1           0.0000     0.0000     0.0000 ca         1 7BF       0.160100
      2 C2           1.3680     0.0000     0.0000 ca         1 7BF      -0.213000
      3 C3           2.0840     0.0000     1.1940 ca         1 7BF      -0.057000
      4 O4          -0.6850    -0.0000    -1.1720 os         1 7BF      -0.297900
      5 C7           0.0450    -0.0010     2.4410 ca         1 7BF      -0.129300
      6 C8          -0.6640    -0.0010     3.6530 ca         1 7BF       0.417200
      7 C10         -2.6860    -0.0130     2.5230 ca         1 7BF       0.387200
      8 C11         -2.0940    -0.0070     1.2970 ca         1 7BF      -0.187300
      9 C12         -0.8530    -0.0010    -3.5830 c3         1 7BF       0.142500
     10 C13         -1.8670    -1.1570    -3.4590 c3         1 7BF      -0.035400
     11 C14         -3.1780    -0.5290    -4.0020 c3         1 7BF      -0.029400
     12 C15         -3.0550     0.9310    -3.4990 c3         1 7BF       0.145800
     13 C20          0.7770     3.9920    -3.9770 cc         1 7BF       0.499200
     14 C21          0.2760     2.6990    -3.8510 cc         1 7BF      -0.422300
     15 C22         -1.3640     4.8630    -3.8940 cd         1 7BF       0.269500
     16 N23         -1.9010     3.6140    -3.7680 na         1 7BF       0.443200
     17 N26         -2.3730     5.7270    -3.8860 nc         1 7BF      -0.402300
     18 C5           1.4470    -0.0000     2.3990 ca         1 7BF      -0.111000
     19 C6          -0.6890    -0.0060     1.2260 ca         1 7BF      -0.039000
     20 N9          -1.9770    -0.0030     3.6440 nb         1 7BF      -0.573000
     21 N16         -1.6210     1.2530    -3.6200 nh         1 7BF      -0.325000
     22 C17          0.0860    -0.0010    -2.3750 c3         1 7BF       0.162400
     23 C18         -1.0890     2.5160    -3.7450 cd         1 7BF       0.054300
     24 N19         -0.0390     5.0250    -3.9950 nd         1 7BF      -0.600000
     25 N24         -3.2890     3.7850    -3.6860 nd         1 7BF      -0.802100
     26 C25         -3.5210     5.0730    -3.7620 cc         1 7BF       0.644200
     27 H1           1.9020     0.0000    -0.9430 ha         1 7BF       0.118000
     28 H2           3.1670     0.0000     1.1650 ha         1 7BF       0.103000
     29 H3          -0.1280     0.0080     4.5950 h4         1 7BF      -0.014900
     30 H4          -3.7680    -0.0140     2.5850 h4         1 7BF      -0.019900
     31 H5          -2.6920    -0.0160     0.3940 ha         1 7BF       0.122000
     32 H6          -0.2840    -0.1090    -4.4980 h1         1 7BF       0.041700
     33 H7          -1.9850    -1.4520    -2.4230 hc         1 7BF       0.037200
     34 H8          -1.5640    -1.9980    -4.0720 hc         1 7BF       0.037200
     35 H9          -3.2020    -0.5630    -5.0850 hc         1 7BF       0.029200
     36 H10         -4.0450    -1.0140    -3.5710 hc         1 7BF       0.029200
     37 H11         -3.3690     0.9990    -2.4640 h1         1 7BF       0.047700
     38 H12         -3.6420     1.5940    -4.1230 h1         1 7BF       0.047700
     39 H14          0.9470     1.8490    -3.8360 ha         1 7BF       0.145000
     40 H15          2.0200    -0.0000     3.3180 ha         1 7BF       0.112000
     41 H16          0.7110     0.8840    -2.4040 h1         1 7BF       0.023200
     42 H17          0.7110    -0.8850    -2.4030 h1         1 7BF       0.023200
     43 H18         -4.5010     5.5330    -3.7290 h5         1 7BF       0.029800
     44 H13          1.8460     4.1490    -4.0600 h4         1 7BF      -0.014900
@<TRIPOS>BOND
     1     1     2 ar  
     2     1     4 1   
     3     1    19 ar  
     4     2     3 ar  
     5     2    27 1   
     6     3    18 ar  
     7     3    28 1   
     8     4    22 1   
     9     5     6 ar  
    10     5    18 ar  
    11     5    19 ar  
    12     6    20 ar  
    13     6    29 1   
    14     7     8 ar  
    15     7    20 ar  
    16     7    30 1   
    17     8    19 ar  
    18     8    31 1   
    19     9    10 1   
    20     9    21 1   
    21     9    22 1   
    22     9    32 1   
    23    10    11 1   
    24    10    33 1   
    25    10    34 1   
    26    11    12 1   
    27    11    35 1   
    28    11    36 1   
    29    12    21 1   
    30    12    37 1   
    31    12    38 1   
    32    13    14 1   
    33    13    24 2   
    34    13    44 1   
    35    14    23 2   
    36    14    39 1   
    37    15    16 1   
    38    15    17 2   
    39    15    24 1   
    40    16    23 1   
    41    16    25 1   
    42    17    26 1   
    43    18    40 1   
    44    21    23 1   
    45    22    41 1   
    46    22    42 1   
    47    25    26 2   
    48    26    43 1   
@<TRIPOS>SUBSTRUCTURE
     1 7BF         1 TEMP              0 ****  ****    0 ROOT
