@<TRIPOS>MOLECULE
molecule
   42    45     1     0     0
SMALL
bcc


@<TRIPOS>ATOM
      1 C1           0.0000     0.0000     0.0000 c3         1 7BH       0.167500
      2 C2           1.5490     0.0000     0.0000 c3         1 7BH      -0.089400
      3 C3           1.8620     0.0000     1.5190 c3         1 7BH      -0.101400
      4 C8          -0.2550     2.4950    -2.6990 ca         1 7BH       0.142100
      5 C9          -1.2080     1.9460    -3.5460 ca         1 7BH      -0.218000
      6 C10         -1.5780     2.6190    -4.6940 ca         1 7BH      -0.094000
      7 C11         -1.0010     3.8370    -5.0000 ca         1 7BH      -0.165000
      8 C12         -0.0520     4.3860    -4.1580 ca         1 7BH      -0.094000
      9 C13          0.3230     3.7170    -3.0080 ca         1 7BH      -0.114300
     10 C14         -1.5450     0.4150     1.7370 ca         1 7BH       0.667200
     11 C16         -3.2900    -1.0940     1.8360 ca         1 7BH       0.695900
     12 C19         -2.0840     1.0800     2.8400 ca         1 7BH      -0.365800
     13 C21         -2.6700     2.3330     4.5480 cc         1 7BH       0.453700
     14 C4           0.7370     0.8770     2.1070 c3         1 7BH       0.157800
     15 N5          -0.3770     0.8620     1.1410 nh         1 7BH      -0.685300
     16 C6          -0.5330     0.5860    -1.3090 c3         1 7BH       0.152400
     17 O7           0.1070     1.8380    -1.5660 os         1 7BH      -0.324900
     18 N15         -3.8350    -0.4980     2.8730 nb         1 7BH      -0.710000
     19 N17         -2.1760    -0.6610     1.2730 nb         1 7BH      -0.798000
     20 C18         -3.2690     0.5870     3.4100 ca         1 7BH       0.628300
     21 N20         -1.7320     2.1850     3.5860 na         1 7BH      -0.242300
     22 N22         -3.5700     1.3950     4.4440 nd         1 7BH      -0.673700
     23 C23          1.3580     4.3160    -2.0900 c3         1 7BH      -0.034800
     24 H1          -0.3750    -1.0050     0.1500 h1         1 7BH       0.094700
     25 H2           1.9350     0.8950    -0.4730 hc         1 7BH       0.066700
     26 H3           1.9350    -0.8950    -0.4730 hc         1 7BH       0.066700
     27 H4           2.8310     0.4460     1.7090 hc         1 7BH       0.055700
     28 H5           1.8100    -1.0050     1.9200 hc         1 7BH       0.055700
     29 H6          -1.6600     0.9920    -3.3070 ha         1 7BH       0.135000
     30 H7          -2.3220     2.1910    -5.3560 ha         1 7BH       0.129000
     31 H8          -1.2930     4.3630    -5.9010 ha         1 7BH       0.129000
     32 H9           0.3990     5.3400    -4.4000 ha         1 7BH       0.133000
     33 H10         -3.7720    -1.9730     1.4270 h5         1 7BH       0.063100
     34 H11         -2.6740     3.1170     5.2950 h5         1 7BH       0.081800
     35 H12          1.0930     1.8920     2.2410 h1         1 7BH       0.051700
     36 H13          0.4080     0.4680     3.0540 h1         1 7BH       0.051700
     37 H14         -1.6020     0.7370    -1.2280 h1         1 7BH       0.046700
     38 H15         -0.3250    -0.0990    -2.1220 h1         1 7BH       0.046700
     39 H16         -0.9320     2.7690     3.4410 hn         1 7BH       0.311700
     40 H18          0.9390     4.4260    -1.0970 hc         1 7BH       0.041700
     41 H19          2.2220     3.6640    -2.0470 hc         1 7BH       0.041700
     42 H20          1.6560     5.2870    -2.4670 hc         1 7BH       0.041700
@<TRIPOS>BOND
     1     2     1 1   
     2     2     3 1   
     3    22    13 2   
     4    22    20 1   
     5    13    21 1   
     6    21    12 1   
     7    20    12 ar  
     8    20    18 ar  
     9    12    10 ar  
    10    23     9 1   
    11    10    15 1   
    12    10    19 ar  
    13    18    11 ar  
    14     1    15 1   
    15     1    16 1   
    16    15    14 1   
    17    19    11 ar  
    18    14     3 1   
    19    17    16 1   
    20    17     4 1   
    21     9     4 ar  
    22     9     8 ar  
    23     4     5 ar  
    24     8     7 ar  
    25     5     6 ar  
    26     7     6 ar  
    27     1    24 1   
    28     2    25 1   
    29     2    26 1   
    30     3    27 1   
    31     3    28 1   
    32     5    29 1   
    33     6    30 1   
    34     7    31 1   
    35     8    32 1   
    36    11    33 1   
    37    13    34 1   
    38    14    35 1   
    39    14    36 1   
    40    16    37 1   
    41    16    38 1   
    42    21    39 1   
    43    23    40 1   
    44    23    41 1   
    45    23    42 1   
@<TRIPOS>SUBSTRUCTURE
     1 7BH         1 TEMP              0 ****  ****    0 ROOT
