@<TRIPOS>MOLECULE
7BH
   42    45     1     0     0
SMALL
bcc


@<TRIPOS>ATOM
      1 C1           0.0000     0.0000     0.0000 c3         1 7BH       0.102500
      2 C2           1.5490     0.0000     0.0000 c3         1 7BH      -0.034400
      3 C3           1.8620     0.0000     1.5190 c3         1 7BH      -0.035400
      4 C8          -0.2550     2.4950    -2.6990 ca         1 7BH       0.151100
      5 C9          -1.2080     1.9460    -3.5460 ca         1 7BH      -0.207000
      6 C10         -1.5780     2.6190    -4.6940 ca         1 7BH      -0.062000
      7 C11         -1.0010     3.8370    -5.0000 ca         1 7BH      -0.142000
      8 C12         -0.0520     4.3860    -4.1580 ca         1 7BH      -0.064000
      9 C13          0.3230     3.7170    -3.0080 ca         1 7BH      -0.130300
     10 C14         -1.5450     0.4150     1.7370 ca         1 7BH       0.558200
     11 C16         -3.2900    -1.0940     1.8360 ca         1 7BH       0.636900
     12 C19         -2.0840     1.0800     2.8400 ca         1 7BH      -0.545800
     13 C21         -2.6700     2.3330     4.5480 cc         1 7BH       0.257700
     14 C4           0.7370     0.8770     2.1070 c3         1 7BH       0.139800
     15 N5          -0.3770     0.8620     1.1410 nh         1 7BH      -0.466300
     16 C6          -0.5330     0.5860    -1.3090 c3         1 7BH       0.210400
     17 O7           0.1070     1.8380    -1.5660 os         1 7BH      -0.299900
     18 N15         -3.8350    -0.4980     2.8730 nb         1 7BH      -0.586000
     19 N17         -2.1760    -0.6610     1.2730 nb         1 7BH      -0.689000
     20 C18         -3.2690     0.5870     3.4100 ca         1 7BH       0.546300
     21 N20         -1.7320     2.1850     3.5860 na         1 7BH       0.300700
     22 N22         -3.5700     1.3950     4.4440 nd         1 7BH      -0.586700
     23 C23          1.3580     4.3160    -2.0900 c3         1 7BH       0.075200
     24 H1          -0.3750    -1.0050     0.1500 h1         1 7BH       0.071700
     25 H2           1.9350     0.8950    -0.4730 hc         1 7BH       0.036200
     26 H3           1.9350    -0.8950    -0.4730 hc         1 7BH       0.036200
     27 H4           2.8310     0.4460     1.7090 hc         1 7BH       0.023700
     28 H5           1.8100    -1.0050     1.9200 hc         1 7BH       0.023700
     29 H6          -1.6600     0.9920    -3.3070 ha         1 7BH       0.121000
     30 H7          -2.3220     2.1910    -5.3560 ha         1 7BH       0.100000
     31 H8          -1.2930     4.3630    -5.9010 ha         1 7BH       0.104000
     32 H9           0.3990     5.3400    -4.4000 ha         1 7BH       0.105000
     33 H10         -3.7720    -1.9730     1.4270 h5         1 7BH       0.000100
     34 H11         -2.6740     3.1170     5.2950 h5         1 7BH       0.030800
     35 H12          1.0930     1.8920     2.2410 h1         1 7BH       0.018200
     36 H13          0.4080     0.4680     3.0540 h1         1 7BH       0.018200
     37 H14         -1.6020     0.7370    -1.2280 h1         1 7BH       0.011700
     38 H15         -0.3250    -0.0990    -2.1220 h1         1 7BH       0.011700
     39 H16         -0.9320     2.7690     3.4410 hn         1 7BH       0.134700
     40 H18          0.9390     4.4260    -1.0970 hc         1 7BH       0.006367
     41 H19          2.2220     3.6640    -2.0470 hc         1 7BH       0.006367
     42 H20          1.6560     5.2870    -2.4670 hc         1 7BH       0.006367
@<TRIPOS>BOND
     1     1     2 1   
     2     1    15 1   
     3     1    16 1   
     4     1    24 1   
     5     2     3 1   
     6     2    25 1   
     7     2    26 1   
     8     3    14 1   
     9     3    27 1   
    10     3    28 1   
    11     4     5 ar  
    12     4     9 ar  
    13     4    17 1   
    14     5     6 ar  
    15     5    29 1   
    16     6     7 ar  
    17     6    30 1   
    18     7     8 ar  
    19     7    31 1   
    20     8     9 ar  
    21     8    32 1   
    22     9    23 1   
    23    10    12 ar  
    24    10    15 1   
    25    10    19 ar  
    26    11    18 ar  
    27    11    19 ar  
    28    11    33 1   
    29    12    20 ar  
    30    12    21 1   
    31    13    21 1   
    32    13    22 2   
    33    13    34 1   
    34    14    15 1   
    35    14    35 1   
    36    14    36 1   
    37    16    17 1   
    38    16    37 1   
    39    16    38 1   
    40    18    20 ar  
    41    20    22 1   
    42    21    39 1   
    43    23    40 1   
    44    23    41 1   
    45    23    42 1   
@<TRIPOS>SUBSTRUCTURE
     1 7BH         1 TEMP              0 ****  ****    0 ROOT
