@<TRIPOS>MOLECULE
7BJ
   41    43     1     0     0
SMALL
bcc


@<TRIPOS>ATOM
      1 C2           0.0000     0.0000     0.0000 ca         1 7BJ       0.061900
      2 C3           1.3840     0.0000     0.0000 ca         1 7BJ      -0.090000
      3 C5           1.3820     0.0000     2.3970 ca         1 7BJ       0.139100
      4 C7           3.4890     0.0010     3.5010 c3         1 7BJ       0.177400
      5 C8           4.0730     0.0010     4.9140 c3         1 7BJ       0.060000
      6 C10          4.4690    -2.3620     5.5520 c          1 7BJ       0.617500
      7 C13          2.6720    -2.8530     6.8230 c3         1 7BJ      -0.107600
      8 C14          1.4860    -3.6560     6.3000 c3         1 7BJ      -0.018900
      9 C15          1.5870    -5.1010     6.7940 c3         1 7BJ      -0.026400
     10 C16          1.5990    -5.1160     8.3230 c3         1 7BJ      -0.028400
     11 C19          2.6040    -1.4280     6.3240 c          1 7BJ       0.636500
     12 C21         -0.0050    -0.0010     2.3970 ca         1 7BJ      -0.150500
     13 C22         -0.6940    -0.0010     1.1990 ca         1 7BJ      -0.090000
     14 F1          -0.6760     0.0050    -1.1700 f          1 7BJ      -0.129900
     15 C4           2.0760     0.0000     1.1960 ca         1 7BJ      -0.150500
     16 O6           2.0620     0.0000     3.5750 os         1 7BJ      -0.298900
     17 N9           3.7220    -1.2510     5.5880 n          1 7BJ      -0.136400
     18 N12          3.9240    -3.3700     6.2590 ns         1 7BJ      -0.200900
     19 C17          2.8070    -4.3280     8.8330 c3         1 7BJ      -0.026400
     20 C18          2.7120    -2.8810     8.3480 c3         1 7BJ      -0.018900
     21 O20          1.7300    -0.6160     6.5380 o          1 7BJ      -0.597500
     22 H23          1.9250     0.0000    -0.9380 ha         1 7BJ       0.118000
     23 H26          3.8240    -0.8830     2.9720 h1         1 7BJ       0.016200
     24 H25          3.8220     0.8860     2.9720 h1         1 7BJ       0.016200
     25 H27          5.1510     0.0920     4.8600 h1         1 7BJ       0.049700
     26 H28          3.6690     0.8370     5.4720 h1         1 7BJ       0.049700
     27 H31          0.5660    -3.2150     6.6630 hc         1 7BJ       0.032700
     28 H30          1.4950    -3.6450     5.2170 hc         1 7BJ       0.032700
     29 H33          0.7350    -5.6650     6.4350 hc         1 7BJ       0.017450
     30 H32          2.5030    -5.5460     6.4230 hc         1 7BJ       0.017450
     31 H35          0.6890    -4.6600     8.6940 hc         1 7BJ       0.019200
     32 H34          1.6640    -6.1400     8.6730 hc         1 7BJ       0.019200
     33 H40         -0.5470    -0.0010     3.3340 ha         1 7BJ       0.124000
     34 H41         -1.7770    -0.0010     1.1970 ha         1 7BJ       0.118000
     35 H24          3.1590     0.0000     1.1960 ha         1 7BJ       0.124000
     36 H29          4.3000    -4.2900     6.3760 hn         1 7BJ       0.225500
     37 H37          2.8170    -4.3450     9.9160 hc         1 7BJ       0.017450
     38 H36          3.7170    -4.7770     8.4510 hc         1 7BJ       0.017450
     39 H38          3.5760    -2.3280     8.6950 hc         1 7BJ       0.032700
     40 H39          1.8080    -2.4300     8.7390 hc         1 7BJ       0.032700
     41 O11          5.5220    -2.4470     4.9520 o          1 7BJ      -0.704500
@<TRIPOS>BOND
     1     1     2 ar  
     2     1    13 ar  
     3     1    14 1   
     4     2    15 ar  
     5     2    22 1   
     6     3    12 ar  
     7     3    15 ar  
     8     3    16 1   
     9     4     5 1   
    10     4    16 1   
    11     4    23 1   
    12     4    24 1   
    13     5    17 1   
    14     5    25 1   
    15     5    26 1   
    16     6    17 1   
    17     6    18 1   
    18     6    41 2   
    19     7     8 1   
    20     7    11 1   
    21     7    18 1   
    22     7    20 1   
    23     8     9 1   
    24     8    27 1   
    25     8    28 1   
    26     9    10 1   
    27     9    29 1   
    28     9    30 1   
    29    10    19 1   
    30    10    31 1   
    31    10    32 1   
    32    11    17 1   
    33    11    21 2   
    34    12    13 ar  
    35    12    33 1   
    36    13    34 1   
    37    15    35 1   
    38    18    36 1   
    39    19    20 1   
    40    19    37 1   
    41    19    38 1   
    42    20    39 1   
    43    20    40 1   
@<TRIPOS>SUBSTRUCTURE
     1 7BJ         1 TEMP              0 ****  ****    0 ROOT
