@<TRIPOS>MOLECULE
molecule
   44    46     1     0     0
SMALL
bcc


@<TRIPOS>ATOM
      1 C1           1.5300     0.0000     0.0000 c3         1 7BK      -0.097100
      2 C2           0.0000     0.0000     0.0000 c3         1 7BK      -0.016700
      3 C3          -0.5530     0.0000     1.4420 c3         1 7BK       0.010000
      4 N4          -0.7560     1.4130     1.7840 n          1 7BK      -0.520800
      5 C5          -0.9250     1.9170     3.1490 c3         1 7BK       0.076000
      6 C6           0.4440     2.2700     3.7360 c3         1 7BK      -0.263600
      7 C8           2.2360     3.7950     3.3940 ca         1 7BK       0.163100
      8 C10          4.1260     3.6270     4.8700 ca         1 7BK      -0.159000
      9 C11          4.7430     4.6720     4.2100 ca         1 7BK       0.150900
     10 C13          4.1010     5.2920     3.1320 ca         1 7BK      -0.015000
     11 C14          4.7350     6.3750     2.4430 cg         1 7BK       0.235800
     12 C16          2.8430     4.8430     2.7240 ca         1 7BK      -0.088000
     13 C19         -0.5530     1.3350    -0.5490 c3         1 7BK      -0.273400
     14 C21          0.3330    -2.1060    -1.3130 ca         1 7BK      -0.115000
     15 C22         -0.1590    -3.1810    -2.0270 ca         1 7BK      -0.146000
     16 C23         -1.5220    -3.3230    -2.2120 ca         1 7BK      -0.151000
     17 C24         -2.3920    -2.3880    -1.6820 ca         1 7BK      -0.146000
     18 C25         -1.8990    -1.3120    -0.9680 ca         1 7BK      -0.115000
     19 O7           1.0120     3.3540     3.0000 os         1 7BK      -0.313900
     20 C9           2.8780     3.1880     4.4660 ca         1 7BK      -0.101000
     21 F12          5.9620     5.0980     4.6070 f          1 7BK      -0.119900
     22 N15          5.2540     7.2320     1.9080 n1         1 7BK      -0.328800
     23 C17         -0.7650     2.1850     0.6840 c          1 7BK       0.720500
     24 O18         -0.9220     3.3880     0.6810 o          1 7BK      -0.670500
     25 C20         -0.5370    -1.1700    -0.7840 ca         1 7BK      -0.043300
     26 H27          1.9910     0.5960     0.7790 hc         1 7BK       0.048033
     27 H28          1.8330    -1.0100     0.2510 hc         1 7BK       0.048033
     28 H26          1.6900     0.2190    -1.0490 hc         1 7BK       0.048033
     29 H29          0.2740     0.3820     2.0280 h1         1 7BK       0.100700
     30 H30         -0.9070    -1.0080     1.6230 h1         1 7BK       0.100700
     31 H32         -1.6920     2.6780     3.0700 h1         1 7BK       0.085200
     32 H31         -1.3330     1.1500     3.7960 h1         1 7BK       0.085200
     33 H34          0.9190     1.3900     3.3180 h1         1 7BK       0.180200
     34 H33          0.7190     3.0450     3.0310 h1         1 7BK       0.180200
     35 H36          4.6950     3.2780     5.7230 ha         1 7BK       0.165000
     36 H37          2.1460     5.2200     1.9860 ha         1 7BK       0.177000
     37 H38          0.0430     2.2090    -0.3160 hc         1 7BK       0.121200
     38 H39         -0.8620     1.2750    -1.5860 hc         1 7BK       0.121200
     39 H40          1.4090    -2.0520    -1.4300 ha         1 7BK       0.142000
     40 H41          0.2630    -3.9250    -2.6910 ha         1 7BK       0.135000
     41 H42         -1.9950    -4.2210    -2.5910 ha         1 7BK       0.129000
     42 H43         -3.4450    -2.5200    -1.9010 ha         1 7BK       0.135000
     43 H44         -2.7770    -0.7370    -0.6980 ha         1 7BK       0.142000
     44 H35          2.5390     2.4070     5.1350 ha         1 7BK       0.187000
@<TRIPOS>BOND
     1    21     9 1
     2    16    15 ar
     3    16    17 ar
     4     8     9 ar
     5     8    20 ar
     6    15    14 ar
     7     9    10 ar
     8    17    18 ar
     9    20     7 ar
    10    14    25 ar
    11    18    25 ar
    12    10    11 1
    13    10    12 ar
    14    25     2 1
    15     7    12 ar
    16     7    19 1
    17    11    22 3
    18     6    19 1
    19     6     5 1
    20    13     2 1
    21    13    23 1
    22    24    23 2
    23     2     3 1
    24     2     1 1
    25    23     4 1
    26     3     4 1
    27     4     5 1
    28     1    26 1
    29     1    27 1
    30     1    28 1
    31     3    29 1
    32     3    30 1
    33     5    31 1
    34     5    32 1
    35     6    33 1
    36     6    34 1
    37     8    35 1
    38    12    36 1
    39    13    37 1
    40    13    38 1
    41    14    39 1
    42    15    40 1
    43    16    41 1
    44    17    42 1
    45    18    43 1
    46    20    44 1
@<TRIPOS>SUBSTRUCTURE
     1 7BK         1 TEMP              0 ****  ****    0 ROOT
