@<TRIPOS>MOLECULE
7BK
   44    47     1     0     0
SMALL
bcc


@<TRIPOS>ATOM
      1 C1           1.5300     0.0000     0.0000 c3         1 7BK      -0.140000
      2 C2           0.0000     0.0000     0.0000 c3         1 7BK       0.000000
      3 C3          -0.5530     0.0000     1.4420 c3         1 7BK      -0.162000
      4 N4          -0.7560     1.4130     1.7840 n3         1 7BK      -0.070000
      5 C5          -0.9250     1.9170     3.1490 c3         1 7BK      -0.070000
      6 C6           0.4440     2.2700     3.7360 c3         1 7BK      -0.490000
      7 C8           2.2360     3.7950     3.3940 ca         1 7BK       0.045000
      8 C10          4.1260     3.6270     4.8700 ca         1 7BK      -0.121000
      9 C11          4.7430     4.6720     4.2100 ca         1 7BK       0.082000
     10 C13          4.1010     5.2920     3.1320 ca         1 7BK       0.054000
     11 C14          4.7350     6.3750     2.4430 c1         1 7BK      -0.112000
     12 C16          2.8430     4.8430     2.7240 ca         1 7BK      -0.072000
     13 C19         -0.5530     1.3350    -0.5490 c3         1 7BK      -0.275000
     14 C21          0.3330    -2.1060    -1.3130 ca         1 7BK      -0.090000
     15 C22         -0.1590    -3.1810    -2.0270 ca         1 7BK      -0.120500
     16 C23         -1.5220    -3.3230    -2.2120 ca         1 7BK      -0.128000
     17 C24         -2.3920    -2.3880    -1.6820 ca         1 7BK      -0.120500
     18 C25         -1.8990    -1.3120    -0.9680 ca         1 7BK      -0.090000
     19 O7           1.0120     3.3540     3.0000 os         1 7BK      -0.012000
     20 C9           2.8780     3.1880     4.4660 ca         1 7BK      -0.066000
     21 F12          5.9620     5.0980     4.6070 f          1 7BK      -0.077000
     22 N15          5.2540     7.2320     1.9080 n1         1 7BK      -0.016000
     23 C17         -0.7650     2.1850     0.6840 c3         1 7BK       0.283000
     24 O18         -0.9220     3.3880     0.6810 o          1 7BK      -0.440000
     25 C20         -0.5370    -1.1700    -0.7840 ca         1 7BK      -0.037000
     26 H27          1.9910     0.5960     0.7790 hc         1 7BK       0.059667
     27 H28          1.8330    -1.0100     0.2510 hc         1 7BK       0.059667
     28 H26          1.6900     0.2190    -1.0490 hc         1 7BK       0.059667
     29 H29          0.2740     0.3820     2.0280 h1         1 7BK       0.112000
     30 H30         -0.9070    -1.0080     1.6230 h1         1 7BK       0.112000
     31 H32         -1.6920     2.6780     3.0700 h1         1 7BK       0.092500
     32 H31         -1.3330     1.1500     3.7960 h1         1 7BK       0.092500
     33 H34          0.9190     1.3900     3.3180 h1         1 7BK       0.194000
     34 H33          0.7190     3.0450     3.0310 h1         1 7BK       0.194000
     35 H36          4.6950     3.2780     5.7230 ha         1 7BK       0.133000
     36 H37          2.1460     5.2200     1.9860 ha         1 7BK       0.140000
     37 H38          0.0430     2.2090    -0.3160 DU         1 7BK       0.115000
     38 H39         -0.8620     1.2750    -1.5860 hc         1 7BK       0.157000
     39 H40          1.4090    -2.0520    -1.4300 ha         1 7BK       0.118500
     40 H41          0.2630    -3.9250    -2.6910 ha         1 7BK       0.110000
     41 H42         -1.9950    -4.2210    -2.5910 ha         1 7BK       0.105000
     42 H43         -3.4450    -2.5200    -1.9010 ha         1 7BK       0.110000
     43 H44         -2.7770    -0.7370    -0.6980 ha         1 7BK       0.118500
     44 H35          2.5390     2.4070     5.1350 ha         1 7BK       0.161000
@<TRIPOS>BOND
     1     1     2 1   
     2     1    26 1   
     3     1    27 1   
     4     1    28 1   
     5     2     3 1   
     6     2    13 1   
     7     2    25 1   
     8     3     4 1   
     9     3    29 1   
    10     3    30 1   
    11     4     5 1   
    12     4    23 1   
    13     5     6 1   
    14     5    31 1   
    15     5    32 1   
    16     6    19 1   
    17     6    33 1   
    18     6    34 1   
    19     7    12 1   
    20     7    19 1   
    21     7    20 1   
    22     8     9 1   
    23     8    20 1   
    24     8    35 1   
    25     9    10 1   
    26     9    21 1   
    27    10    11 1   
    28    10    12 1   
    29    11    22 1   
    30    12    36 1   
    31    13    23 1   
    32    13    37 1   
    33    13    38 1   
    34    14    15 1   
    35    14    25 1   
    36    14    39 1   
    37    15    16 1   
    38    15    40 1   
    39    16    17 1   
    40    16    41 1   
    41    17    18 1   
    42    17    42 1   
    43    18    25 1   
    44    18    43 1   
    45    20    44 1   
    46    23    24 1   
    47    23    37 1   
@<TRIPOS>SUBSTRUCTURE
     1 7BK         1 TEMP              0 ****  ****    0 ROOT
