@<TRIPOS>MOLECULE
molecule
   71    71     1     0     0
SMALL
bcc


@<TRIPOS>ATOM
      1 C7           0.0000     0.0000     0.0000 c3         1 7BL      -0.055900
      2 C6           1.5070     0.0000     0.0000 c2         1 7BL      -0.180200
      3 C5           2.1620     0.0000     1.1340 c2         1 7BL      -0.175200
      4 C2           3.6690    -0.0000     1.1340 c3         1 7BL      -0.092000
      5 C1           4.1720     1.1360     1.9880 c2         1 7BL       0.088600
      6 C3           4.2830     2.5220     1.4060 c3         1 7BL      -0.061900
      7 C4           4.5110     0.9180     3.2340 c2         1 7BL      -0.520200
      8 C8           4.3510    -0.4560     3.8300 c3         1 7BL       0.143300
      9 C9           5.7320    -1.0570     4.1030 c3         1 7BL      -0.079200
     10 C10          5.6180    -2.5580     4.1860 c2         1 7BL      -0.174200
     11 C11          5.6620    -3.1620     5.3690 ce         1 7BL      -0.125000
     12 C12          5.5490    -4.6270     5.4500 ce         1 7BL      -0.116000
     13 C13          5.5780    -5.2300     6.6340 c2         1 7BL      -0.208200
     14 C14          5.4610    -6.7300     6.7200 c3         1 7BL      -0.071200
     15 C15          4.4770    -7.1000     7.8310 c3         1 7BL      -0.086500
     16 C16          3.0660    -6.8970     7.3410 c2         1 7BL      -0.494200
     17 C17          2.2180    -6.2000     8.0570 c2         1 7BL       0.030600
     18 C18          2.6530    -5.6020     9.3690 c3         1 7BL      -0.133900
     19 C20          0.8070    -5.9980     7.5670 c3         1 7BL       0.188300
     20 C21          0.2430    -4.7050     8.1590 c3         1 7BL      -0.097200
     21 C22          0.0800    -3.6810     7.0650 c2         1 7BL      -0.156200
     22 C23          0.4500    -2.4410     7.2680 c2         1 7BL      -0.198200
     23 C24          0.2920    -1.4180     6.1720 c3         1 7BL       0.186300
     24 C27          1.4370    -0.4070     6.2510 c3         1 7BL      -0.130400
     25 C26          2.2740    -0.4980     5.0010 c          1 7BL       0.641100
     26 O25          3.6090    -0.3600     5.0740 os         1 7BL      -0.385900
     27 O28          1.7450    -0.6940     3.9320 o          1 7BL      -0.569000
     28 O29         -0.9560    -0.7400     6.3310 oh         1 7BL      -0.598800
     29 O67         -0.0020    -7.1020     7.9770 os         1 7BL      -0.410600
     30 C68         -1.0800    -7.3940     7.0860 c3         1 7BL       0.129700
     31 C19          4.6750    -8.5670     8.2190 c3         1 7BL      -0.051100
     32 H18         -0.3610    -0.9520     0.3690 hc         1 7BL       0.040700
     33 H19         -0.3610     0.1570    -1.0090 hc         1 7BL       0.040700
     34 H20         -0.3610     0.7960     0.6400 hc         1 7BL       0.040700
     35 H17          2.0490    -0.0000    -0.9380 ha         1 7BL       0.115000
     36 H16          1.6210     0.0000     2.0720 ha         1 7BL       0.169000
     37 H15          4.0300     0.1230     0.1200 hc         1 7BL       0.055700
     38 H14          4.0310    -0.9400     1.5340 hc         1 7BL       0.055700
     39 H22          5.0680     3.0670     1.9180 hc         1 7BL       0.059367
     40 H23          3.3420     3.0430     1.5310 hc         1 7BL       0.059367
     41 H21          4.5210     2.4540     0.3520 hc         1 7BL       0.059367
     42 H13          5.2170     0.1130     3.0710 ha         1 7BL       0.315000
     43 H12          3.8130    -1.0910     3.1360 h1         1 7BL       0.055700
     44 H25          6.1150    -0.6710     5.0400 hc         1 7BL       0.075700
     45 H24          6.4080    -0.7900     3.2990 hc         1 7BL       0.075700
     46 H26          5.5000    -3.1440     3.2830 ha         1 7BL       0.130000
     47 H27          5.7790    -2.5760     6.2720 ha         1 7BL       0.135000
     48 H28          5.4400    -5.2130     4.5460 ha         1 7BL       0.136000
     49 H29          5.6850    -4.6430     7.5380 ha         1 7BL       0.127000
     50 H31          5.1010    -7.1190     5.7750 hc         1 7BL       0.070700
     51 H30          6.4320    -7.1560     6.9400 hc         1 7BL       0.070700
     52 H32          4.6540    -6.4710     8.6950 hc         1 7BL       0.032700
     53 H33          3.8500    -6.1510     7.2770 ha         1 7BL       0.360000
     54 H1           3.1450    -6.3610     9.9670 hc         1 7BL       0.053367
     55 H3           1.7870    -5.2290     9.9010 hc         1 7BL       0.053367
     56 H2           3.3420    -4.7870     9.1840 hc         1 7BL       0.053367
     57 H4           0.8060    -5.9310     6.4860 h1         1 7BL       0.067700
     58 H5          -0.7200    -4.9050     8.6120 hc         1 7BL       0.067200
     59 H6           0.9240    -4.3250     8.9110 hc         1 7BL       0.067200
     60 H7          -0.3400    -3.9710     6.1100 ha         1 7BL       0.124000
     61 H8           0.8740    -2.1510     8.2220 ha         1 7BL       0.132000
     62 H9           0.3130    -1.9140     5.2090 h1         1 7BL       0.061700
     63 H11          1.0300     0.5930     6.3400 hc         1 7BL       0.088700
     64 H10          2.0530    -0.6250     7.1150 hc         1 7BL       0.088700
     65 H37         -1.5710    -1.0600     5.6930 ho         1 7BL       0.408000
     66 H52         -0.8230    -7.0630     6.0870 h1         1 7BL       0.031367
     67 H51         -1.2610    -8.4620     7.0770 h1         1 7BL       0.031367
     68 H50         -1.9740    -6.8800     7.4190 h1         1 7BL       0.031367
     69 H36          5.6880    -8.7140     8.5740 hc         1 7BL       0.042367
     70 H35          4.5010    -9.1970     7.3550 hc         1 7BL       0.042367
     71 H34          3.9760    -8.8310     9.0040 hc         1 7BL       0.042367
@<TRIPOS>BOND
     1     2     3 2
     2     2     1 1
     3     4     3 1
     4     4     5 1
     5     6     5 1
     6     5     7 2
     7     7     8 1
     8    27    25 2
     9     8     9 1
    10     8    26 1
    11     9    10 1
    12    10    11 2
    13    25    26 1
    14    25    24 1
    15    11    12 1
    16    28    23 1
    17    24    23 1
    18    12    13 2
    19    23    22 1
    20    13    14 1
    21    14    15 1
    22    22    21 2
    23    21    20 1
    24    15    16 1
    25    15    31 1
    26    16    17 2
    27    20    19 1
    28    17    19 1
    29    17    18 1
    30    19    29 1
    31    29    30 1
    32     1    32 1
    33     1    33 1
    34     1    34 1
    35     2    35 1
    36     3    36 1
    37     4    37 1
    38     4    38 1
    39     6    39 1
    40     6    40 1
    41     6    41 1
    42     7    42 1
    43     8    43 1
    44     9    44 1
    45     9    45 1
    46    10    46 1
    47    11    47 1
    48    12    48 1
    49    13    49 1
    50    14    50 1
    51    14    51 1
    52    15    52 1
    53    16    53 1
    54    18    54 1
    55    18    55 1
    56    18    56 1
    57    19    57 1
    58    20    58 1
    59    20    59 1
    60    21    60 1
    61    22    61 1
    62    23    62 1
    63    24    63 1
    64    24    64 1
    65    28    65 1
    66    30    66 1
    67    30    67 1
    68    30    68 1
    69    31    69 1
    70    31    70 1
    71    31    71 1
@<TRIPOS>SUBSTRUCTURE
     1 7BL         1 TEMP              0 ****  ****    0 ROOT
