@<TRIPOS>MOLECULE
molecule
   43    44     1     0     0
SMALL
bcc


@<TRIPOS>ATOM
      1 C1           0.0000     0.0000     0.0000 c3         1 7BP      -0.083433
      2 C2           1.5300     0.0000     0.0000 c3         1 7BP      -0.059000
      3 C3           2.0400     0.0000     1.4420 c3         1 7BP      -0.083433
      4 C5           2.0400    -1.2490    -0.7220 c3         1 7BP      -0.042700
      5 C7           1.3930    -2.5250    -0.1420 c3         1 7BP      -0.093000
      6 C10         -0.5690    -5.1060    -1.0900 c3         1 7BP      -0.561600
      7 C12         -2.5410    -4.8590    -2.3950 ca         1 7BP      -0.007900
      8 C13         -3.2450    -5.3950    -1.3250 ca         1 7BP      -0.099000
      9 C14         -4.6150    -5.5620    -1.4060 ca         1 7BP      -0.156000
     10 C15         -5.2930    -5.1960    -2.5530 ca         1 7BP       0.175900
     11 C21          1.2650    -2.7460    -2.4500 c          1 7BP       0.608500
     12 C23          1.5450    -1.2820    -2.1860 c3         1 7BP      -0.233400
     13 C4           2.0390     1.2500    -0.7220 c3         1 7BP      -0.083433
     14 N8           1.1900    -3.4180    -1.2890 n          1 7BP      -0.356800
     15 C9           0.9390    -4.8570    -1.1820 c3         1 7BP      -0.244000
     16 O11         -1.1940    -4.7030    -2.3110 os         1 7BP      -0.049900
     17 F16         -6.6320    -5.3610    -2.6280 f          1 7BP      -0.117900
     18 C17         -4.5920    -4.6550    -3.6350 ca         1 7BP      -0.039000
     19 C18         -5.2900    -4.2740    -4.8270 cg         1 7BP       0.234800
     20 N19         -5.8590    -3.9820    -5.7650 n1         1 7BP      -0.328800
     21 C20         -3.2080    -4.4890    -3.5490 ca         1 7BP      -0.051000
     22 O22          1.1270    -3.2390    -3.5490 o          1 7BP      -0.637500
     23 H24         -0.3610    -0.5830     0.8390 hc         1 7BP       0.037256
     24 H25         -0.3610     1.0180     0.0850 hc         1 7BP       0.037256
     25 H26         -0.3610    -0.4350    -0.9240 hc         1 7BP       0.037256
     26 H29          2.1290     1.0210     1.7940 hc         1 7BP       0.037256
     27 H27          3.0090    -0.4820     1.4820 hc         1 7BP       0.037256
     28 H28          1.3420    -0.5390     2.0720 hc         1 7BP       0.037256
     29 H6           3.1210    -1.3140    -0.6810 hc         1 7BP       0.058700
     30 H33          1.2200    -2.4070     0.9210 h1         1 7BP       0.154700
     31 H34          2.0240    -3.3850    -0.3320 h1         1 7BP       0.154700
     32 H38         -1.0940    -4.3640    -1.6790 h1         1 7BP       0.227700
     33 H37         -0.8840    -5.0370    -0.0560 h1         1 7BP       0.227700
     34 H39         -2.7200    -5.6890    -0.4240 ha         1 7BP       0.180000
     35 H40         -5.1590    -5.9810    -0.5680 ha         1 7BP       0.164000
     36 H42          1.3370    -0.2780    -2.5350 hc         1 7BP       0.103200
     37 H43          2.2810    -1.7620    -2.8200 hc         1 7BP       0.103200
     38 H30          3.1130     1.1810    -0.8480 hc         1 7BP       0.037256
     39 H31          1.5660     1.3240    -1.6930 hc         1 7BP       0.037256
     40 H32          1.7990     2.1280    -0.1360 hc         1 7BP       0.037256
     41 H36          1.1230    -3.9760    -1.7840 h1         1 7BP       0.215200
     42 H35          1.4190    -5.7140    -1.6380 h1         1 7BP       0.215200
     43 H41         -2.6570    -4.0710    -4.3830 ha         1 7BP       0.172000
@<TRIPOS>BOND
     1    17    10 1   
     2     9    10 ar  
     3     9     8 ar  
     4    10    18 ar  
     5     8     7 ar  
     6    18    19 1   
     7    18    21 ar  
     8    13     2 1   
     9     7    21 ar  
    10     7    16 1   
    11     1     2 1   
    12     4    12 1   
    13     4     2 1   
    14     4     5 1   
    15    19    20 3   
    16     6    16 1   
    17     6    15 1   
    18    12    11 1   
    19     2     3 1   
    20    22    11 2   
    21    11    14 1   
    22     5    14 1   
    23    14    15 1   
    24     1    23 1   
    25     1    24 1   
    26     1    25 1   
    27     3    26 1   
    28     3    27 1   
    29     3    28 1   
    30     4    29 1   
    31     5    30 1   
    32     5    31 1   
    33     6    32 1   
    34     6    33 1   
    35     8    34 1   
    36     9    35 1   
    37    12    36 1   
    38    12    37 1   
    39    13    38 1   
    40    13    39 1   
    41    13    40 1   
    42    15    41 1   
    43    15    42 1   
    44    21    43 1   
@<TRIPOS>SUBSTRUCTURE
     1 7BP         1 TEMP              0 ****  ****    0 ROOT
