@<TRIPOS>MOLECULE
molecule
   50    52     1     0     0
SMALL
bcc


@<TRIPOS>ATOM
      1 C1           1.5300     0.0000     0.0000 c3         1 7BR      -0.120100
      2 C2           0.0000     0.0000     0.0000 c3         1 7BR      -0.158000
      3 C3          -0.5040     0.0000     1.4400 c3         1 7BR      -0.110900
      4 C8           0.1930     2.4870    -0.2110 c3         1 7BR      -0.198100
      5 C10         -0.5040    -1.2570    -0.7110 c3         1 7BR      -0.077700
      6 C12          0.0340    -2.5330    -0.0240 c3         1 7BR       0.038000
      7 C15         -1.0820    -5.2960     1.5660 c3         1 7BR       0.103400
      8 C19         -2.1600    -6.0290     5.4360 ca         1 7BR      -0.137000
      9 C22         -4.4070    -5.2770     5.0040 ca         1 7BR       0.000000
     10 C23         -5.7390    -5.0230     5.4620 cg         1 7BR       0.239800
     11 C25         -4.0600    -5.0190     3.6750 ca         1 7BR      -0.103000
     12 C26         -2.2300    -2.9150    -0.3830 c          1 7BR       0.691500
     13 C28         -2.0310    -1.4210    -0.5290 c3         1 7BR      -0.134400
     14 C4           0.1920     1.1070     2.2360 c3         1 7BR      -0.198100
     15 S5          -0.2650     2.7190     1.5320 s6         1 7BR       1.614000
     16 O6          -1.6750     2.8690     1.6160 o          1 7BR      -0.633300
     17 O7           0.5780     3.7160     2.0940 o          1 7BR      -0.633300
     18 C9          -0.5020     1.2320    -0.7460 c3         1 7BR      -0.110900
     19 N13         -1.0570    -3.5120    -0.1070 n          1 7BR      -0.474800
     20 O16         -2.4310    -5.0170     1.9470 os         1 7BR      -0.296900
     21 C17         -2.7700    -5.2670     3.2400 ca         1 7BR       0.092100
     22 C18         -1.8230    -5.7720     4.1210 ca         1 7BR      -0.204000
     23 C20         -3.4450    -5.7850     5.8850 ca         1 7BR       0.158900
     24 F21         -3.7730    -6.0370     7.1710 f          1 7BR      -0.124900
     25 N24         -6.7930    -4.8330     5.8400 n1         1 7BR      -0.337800
     26 O27         -3.2910    -3.4890    -0.4980 o          1 7BR      -0.594500
     27 H30          1.8360    -1.0020     0.2740 hc         1 7BR       0.069700
     28 H31          1.5360    -0.0650    -1.0810 hc         1 7BR       0.069700
     29 H29          1.9680     0.9200     0.3670 hc         1 7BR       0.069700
     30 H32         -0.0360    -0.8520     1.9190 hc         1 7BR       0.174950
     31 H33          0.0870     0.7700     1.9210 hc         1 7BR       0.174950
     32 H11         -0.2420    -1.2470    -1.7620 hc         1 7BR       0.074700
     33 H40          0.6750    -2.4950     0.8480 h1         1 7BR       0.050200
     34 H41          0.6270    -3.2220    -0.6130 h1         1 7BR       0.050200
     35 H43         -0.5080    -5.8840    -0.3160 h1         1 7BR       0.111700
     36 H42         -1.8250    -4.9190    -0.4590 h1         1 7BR       0.111700
     37 H44         -0.6900    -6.2860     1.3690 h1         1 7BR       0.056200
     38 H45         -0.4330    -4.6190     2.1080 h1         1 7BR       0.056200
     39 H47         -1.1940    -6.3790     5.7790 ha         1 7BR       0.166000
     40 H48         -4.5980    -4.5130     2.8830 ha         1 7BR       0.175000
     41 H49         -2.1210    -0.9590     0.4470 hc         1 7BR       0.114200
     42 H50         -2.3190    -1.2120    -1.5520 hc         1 7BR       0.114200
     43 H38         -0.3440     0.6180    -1.6240 hc         1 7BR       0.174950
     44 H39          0.3010     1.9420    -0.9030 hc         1 7BR       0.174950
     45 H46         -0.9500    -6.0900     3.5640 ha         1 7BR       0.142000
     46 H37          0.5480     3.1940    -0.9510 h1         1 7BR      -0.104050
     47 H34          0.0290     2.1650     2.0680 h1         1 7BR      -0.104050
     48 H35         -0.1420     0.9140     3.2480 h1         1 7BR      -0.104050
     49 H36         -0.2660     1.5570    -0.5230 h1         1 7BR      -0.104050
     50 C14         -0.8900    -4.9540     0.0870 c3         1 7BR      -0.004000
@<TRIPOS>BOND
     1     1     2 1   
     2     2     3 1   
     3     2     5 1   
     4     2    18 1   
     5     3    14 1   
     6     4    15 1   
     7     4    18 1   
     8     5     6 1   
     9     5    13 1   
    10     6    19 1   
    11    50     7 1   
    12    50    19 1   
    13     7    20 1   
    14     8    22 ar  
    15     8    23 ar  
    16     9    10 1   
    17     9    11 ar  
    18     9    23 ar  
    19    10    25 3   
    20    11    21 ar  
    21    12    13 1   
    22    12    19 1   
    23    12    26 2   
    24    14    15 1   
    25    15    16 2   
    26    15    17 2   
    27    20    21 1   
    28    21    22 ar  
    29    23    24 1   
    30     1    27 1   
    31     1    28 1   
    32     1    29 1   
    33     3    30 1   
    34     3    31 1   
    35     4    46 1   
    36     4    49 1   
    37     5    32 1   
    38     6    33 1   
    39     6    34 1   
    40    50    35 1   
    41    50    36 1   
    42     7    37 1   
    43     7    38 1   
    44     8    39 1   
    45    11    40 1   
    46    13    41 1   
    47    13    42 1   
    48    14    48 1   
    49    14    47 1   
    50    18    43 1   
    51    18    44 1   
    52    22    45 1   
@<TRIPOS>SUBSTRUCTURE
     1 7BR         1 TEMP              0 ****  ****    0 ROOT
