@<TRIPOS>MOLECULE
molecule
   59    60     1     0     0
SMALL
bcc


@<TRIPOS>ATOM
      1 C4           0.0000     0.0000     0.0000 c3         1 7BT       0.096100
      2 C5           1.5320     0.0000     0.0000 c3         1 7BT       0.137100
      3 C6           2.0410     1.2500    -0.7200 c3         1 7BT       0.150400
      4 C3          -0.5030    -1.2210     0.7740 c3         1 7BT       0.126100
      5 CBB          6.9980    -3.7770     4.7970 c3         1 7BT       0.125700
      6 CAU          8.6510    -3.6110     3.0940 ca         1 7BT       0.154100
      7 CAT          7.7950    -4.3220     2.2750 ca         1 7BT      -0.220500
      8 CAV          9.8880    -3.1900     2.6130 ca         1 7BT       0.071100
      9 OAZ         10.7260    -2.4870     3.4200 os         1 7BT      -0.322900
     10 CBC         11.6520    -3.2390     4.2060 c3         1 7BT       0.135700
     11 CAW         10.2690    -3.4870     1.3060 ca         1 7BT       0.154100
     12 OBA         11.4770    -3.0740     0.8410 os         1 7BT      -0.310400
     13 CBD         11.8040    -3.4130    -0.5090 c3         1 7BT       0.125700
     14 CAX          9.4200    -4.2020     0.4830 ca         1 7BT      -0.220500
     15 CAF          8.1740    -4.6230     0.9610 ca         1 7BT       0.046200
     16 CAE          7.2690    -5.3840     0.0890 ce         1 7BT      -0.152200
     17 CAC          5.9530    -5.0820     0.0540 cf         1 7BT      -0.265200
     18 CAB          5.4630    -3.8690     0.7060 c          1 7BT       0.751300
     19 OAD          6.2530    -3.0620     1.1630 o          1 7BT      -0.607100
     20 NAA          4.1380    -3.6410     0.8010 ns         1 7BT      -0.594900
     21 CAG          3.6480    -2.4250     1.4530 c3         1 7BT       0.117000
     22 CAS          2.1180    -2.4130     1.4260 c3         1 7BT      -0.135400
     23 C1           1.6060    -1.1420     2.1080 c3         1 7BT       0.138100
     24 O5           2.0060     0.0000     1.3480 os         1 7BT      -0.381600
     25 O6           3.4660     1.1930    -0.8220 oh         1 7BT      -0.598800
     26 O4          -0.4790     1.1920     0.6250 oh         1 7BT      -0.580800
     27 O3          -1.9300    -1.1900     0.8420 oh         1 7BT      -0.590800
     28 C2           0.0780    -1.1890     2.1920 c3         1 7BT       0.121100
     29 O2          -0.3260    -2.3620     2.9010 oh         1 7BT      -0.605800
     30 H1          -0.3600    -0.0480    -1.0210 h1         1 7BT       0.038700
     31 H2           1.8910    -0.8870    -0.5070 h1         1 7BT       0.055700
     32 H3           1.6100     1.2960    -1.7130 h1         1 7BT       0.035700
     33 H4           1.7550     2.1320    -0.1600 h1         1 7BT       0.035700
     34 H5          -0.1780    -2.1250     0.2730 h1         1 7BT       0.047700
     35 H6           6.9250    -4.8460     4.6370 h1         1 7BT       0.043200
     36 H7           6.8690    -3.5600     5.8500 h1         1 7BT       0.043200
     37 H8           6.2270    -3.2730     4.2270 h1         1 7BT       0.043200
     38 H9           6.8310    -4.6460     2.6490 ha         1 7BT       0.145500
     39 H10         11.6630    -4.2680     3.8650 h1         1 7BT       0.034033
     40 H11         11.3530    -3.2070     5.2460 h1         1 7BT       0.034033
     41 H12         12.6430    -2.8140     4.1010 h1         1 7BT       0.034033
     42 H13         12.8010    -3.0570    -0.7390 h1         1 7BT       0.043200
     43 H14         11.7670    -4.4890    -0.6300 h1         1 7BT       0.043200
     44 H15         11.0910    -2.9500    -1.1800 h1         1 7BT       0.043200
     45 H16          9.7170    -4.4320    -0.5330 ha         1 7BT       0.145500
     46 H17          7.7040    -4.4570    -0.2640 ha         1 7BT       0.179000
     47 H18          5.7090    -5.0980     1.1100 ha         1 7BT       0.040000
     48 H19          3.4890    -4.3020     0.4220 hn         1 7BT       0.324500
     49 H20          3.9910    -2.4030     2.4810 h1         1 7BT       0.064200
     50 H21          4.0260    -1.5560     0.9280 h1         1 7BT       0.064200
     51 H22          1.7750    -2.4350     0.3980 hc         1 7BT       0.059200
     52 H23          1.7410    -3.2820     1.9510 hc         1 7BT       0.059200
     53 H24          2.0190    -1.0720     3.1070 h1         1 7BT       0.092700
     54 H25          3.7710     1.8990    -1.3680 ho         1 7BT       0.405000
     55 H26         -1.1090     1.6110     0.0630 ho         1 7BT       0.405000
     56 H27         -2.2880    -1.7630     0.1840 ho         1 7BT       0.403000
     57 H28         -0.2810    -0.3060     2.7080 h1         1 7BT       0.078700
     58 H29         -0.7230    -2.1130     3.7200 ho         1 7BT       0.412000
     59 OAY          8.2830    -3.3190     4.3700 os         1 7BT      -0.310400
@<TRIPOS>BOND
     1    17    16 2
     2    17    18 1
     3    20    21 1
     4    20    18 1
     5    16    15 1
     6    21    22 1
     7    18    19 2
     8    24    23 1
     9    24     2 1
    10    25     3 1
    11    23    22 1
    12    23    28 1
    13    14    15 ar
    14    14    11 ar
    15     3     2 1
    16    15     7 ar
    17     2     1 1
    18    26     1 1
    19    12    11 1
    20    12    13 1
    21    28    29 1
    22    28     4 1
    23    11     8 ar
    24     7     6 ar
    25     1     4 1
    26     8     6 ar
    27     8     9 1
    28     4    27 1
    29    10     9 1
    30     6    59 1
    31     5    59 1
    32     1    30 1
    33     2    31 1
    34     3    32 1
    35     3    33 1
    36     4    34 1
    37     5    35 1
    38     5    36 1
    39     5    37 1
    40     7    38 1
    41    10    39 1
    42    10    40 1
    43    10    41 1
    44    13    42 1
    45    13    43 1
    46    13    44 1
    47    14    45 1
    48    16    46 1
    49    17    47 1
    50    20    48 1
    51    21    49 1
    52    21    50 1
    53    22    51 1
    54    22    52 1
    55    23    53 1
    56    25    54 1
    57    26    55 1
    58    27    56 1
    59    28    57 1
    60    29    58 1
@<TRIPOS>SUBSTRUCTURE
     1 7BT         1 TEMP              0 ****  ****    0 ROOT
