@<TRIPOS>MOLECULE
7BT
   59    60     1     0     0
SMALL
bcc


@<TRIPOS>ATOM
      1 C4           0.0000     0.0000     0.0000 c3         1 7BT       0.140100
      2 C5           1.5320     0.0000     0.0000 c3         1 7BT       0.149100
      3 C6           2.0410     1.2500    -0.7200 c3         1 7BT       0.225400
      4 C3          -0.5030    -1.2210     0.7740 c3         1 7BT       0.149100
      5 CBB          6.9980    -3.7770     4.7970 c3         1 7BT       0.240200
      6 CAU          8.6510    -3.6110     3.0940 ca         1 7BT       0.154100
      7 CAT          7.7950    -4.3220     2.2750 ca         1 7BT      -0.194500
      8 CAV          9.8880    -3.1900     2.6130 ca         1 7BT       0.054100
      9 OAZ         10.7260    -2.4870     3.4200 os         1 7BT      -0.308900
     10 CBC         11.6520    -3.2390     4.2060 c3         1 7BT       0.250700
     11 CAW         10.2690    -3.4870     1.3060 ca         1 7BT       0.154100
     12 OBA         11.4770    -3.0740     0.8410 os         1 7BT      -0.294400
     13 CBD         11.8040    -3.4130    -0.5090 c3         1 7BT       0.240200
     14 CAX          9.4200    -4.2020     0.4830 ca         1 7BT      -0.194500
     15 CAF          8.1740    -4.6230     0.9610 ca         1 7BT      -0.000800
     16 CAE          7.2690    -5.3840     0.0890 ce         1 7BT       0.022800
     17 CAC          5.9530    -5.0820     0.0540 cf         1 7BT      -0.245200
     18 CAB          5.4630    -3.8690     0.7060 c          1 7BT       0.568300
     19 OAD          6.2530    -3.0620     1.1630 o          1 7BT      -0.636100
     20 NAA          4.1380    -3.6410     0.8010 ns         1 7BT      -0.196900
     21 CAG          3.6480    -2.4250     1.4530 c3         1 7BT       0.046000
     22 CAS          2.1180    -2.4130     1.4260 c3         1 7BT      -0.095400
     23 C1           1.6060    -1.1420     2.1080 c3         1 7BT       0.177100
     24 O5           2.0060     0.0000     1.3480 os         1 7BT      -0.364600
     25 O6           3.4660     1.1930    -0.8220 oh         1 7BT      -0.580800
     26 O4          -0.4790     1.1920     0.6250 oh         1 7BT      -0.560800
     27 O3          -1.9300    -1.1900     0.8420 oh         1 7BT      -0.573800
     28 C2           0.0780    -1.1890     2.1920 c3         1 7BT       0.148100
     29 O2          -0.3260    -2.3620     2.9010 oh         1 7BT      -0.586800
     30 H1          -0.3600    -0.0480    -1.0210 h1         1 7BT       0.004700
     31 H2           1.8910    -0.8870    -0.5080 h1         1 7BT       0.027700
     32 H3           1.7550     2.1320    -0.1600 h1         1 7BT      -0.002800
     33 H4           1.6100     1.2960    -1.7130 h1         1 7BT      -0.002800
     34 H5          -0.1780    -2.1250     0.2730 h1         1 7BT       0.016700
     35 H6           6.9250    -4.8460     4.6370 h1         1 7BT      -0.003467
     36 H7           6.2270    -3.2730     4.2260 h1         1 7BT      -0.003467
     37 H8           6.8690    -3.5600     5.8500 h1         1 7BT      -0.003467
     38 H9           6.8310    -4.6460     2.6490 ha         1 7BT       0.124000
     39 H10         12.6060    -2.7260     4.2290 h1         1 7BT      -0.012300
     40 H11         11.2720    -3.3400     5.2150 h1         1 7BT      -0.012300
     41 H12         11.7810    -4.2220     3.7690 h1         1 7BT      -0.012300
     42 H13         12.8080    -3.0740    -0.7330 h1         1 7BT      -0.003467
     43 H14         11.1020    -2.9340    -1.1810 h1         1 7BT      -0.003467
     44 H15         11.7480    -4.4870    -0.6350 h1         1 7BT      -0.003467
     45 H16          9.7170    -4.4320    -0.5330 ha         1 7BT       0.124000
     46 H17          7.6260    -6.2840    -0.3970 ha         1 7BT       0.099000
     47 H18          5.2900    -5.6470    -0.5900 ha         1 7BT       0.105000
     48 H19          3.4890    -4.3040     0.4250 hn         1 7BT       0.169500
     49 H20          4.0260    -1.5560     0.9280 h1         1 7BT       0.038200
     50 H21          3.9910    -2.4030     2.4810 h1         1 7BT       0.038200
     51 H22          1.7750    -2.4350     0.3980 hc         1 7BT       0.033200
     52 H23          1.7410    -3.2820     1.9510 hc         1 7BT       0.033200
     53 H24          2.0190    -1.0720     3.1070 h1         1 7BT       0.051700
     54 H25          3.7740     1.9210    -1.3350 ho         1 7BT       0.390000
     55 H26         -1.1200     1.6030     0.0690 ho         1 7BT       0.390000
     56 H27         -2.2860    -1.8480     0.2680 ho         1 7BT       0.388000
     57 H28         -0.2810    -0.3060     2.7080 h1         1 7BT       0.040700
     58 H29         -0.8560    -2.1150     3.6410 ho         1 7BT       0.399000
     59 OAY          8.2830    -3.3190     4.3700 os         1 7BT      -0.294400
@<TRIPOS>BOND
     1     1     2 1   
     2     1     4 1   
     3     1    26 1   
     4     1    30 1   
     5     2     3 1   
     6     2    24 1   
     7     2    31 1   
     8     3    25 1   
     9     3    32 1   
    10     3    33 1   
    11     4    27 1   
    12     4    28 1   
    13     4    34 1   
    14     5    35 1   
    15     5    36 1   
    16     5    37 1   
    17     5    59 1   
    18     6     7 ar  
    19     6     8 ar  
    20     6    59 1   
    21     7    15 ar  
    22     7    38 1   
    23     8     9 1   
    24     8    11 ar  
    25     9    10 1   
    26    10    39 1   
    27    10    40 1   
    28    10    41 1   
    29    11    12 1   
    30    11    14 ar  
    31    12    13 1   
    32    13    42 1   
    33    13    43 1   
    34    13    44 1   
    35    14    15 ar  
    36    14    45 1   
    37    15    16 1   
    38    16    17 2   
    39    16    46 1   
    40    17    18 1   
    41    17    47 1   
    42    18    19 2   
    43    18    20 1   
    44    20    21 1   
    45    20    48 1   
    46    21    22 1   
    47    21    49 1   
    48    21    50 1   
    49    22    23 1   
    50    22    51 1   
    51    22    52 1   
    52    23    24 1   
    53    23    28 1   
    54    23    53 1   
    55    25    54 1   
    56    26    55 1   
    57    27    56 1   
    58    28    29 1   
    59    28    57 1   
    60    29    58 1   
@<TRIPOS>SUBSTRUCTURE
     1 7BT         1 TEMP              0 ****  ****    0 ROOT
