@<TRIPOS>MOLECULE
7BV
   42    45     1     0     0
SMALL
bcc


@<TRIPOS>ATOM
      1 O            0.0000     0.0000     0.0000 o          1 7BV      -0.865800
      2 C            1.2090     0.0000     0.0000 c          1 7BV       0.983600
      3 OXT          1.8800     0.0000     1.1630 o          1 7BV      -0.865800
      4 CA           1.9620    -0.0070    -1.3050 c3         1 7BV      -0.021500
      5 N            1.1010     0.4940    -2.3520 n2         1 7BV      -0.356900
      6 CB           2.4310    -1.4390    -1.6080 c3         1 7BV       0.113700
      7 SAO          1.6360    -1.8110    -3.2040 ss         1 7BV      -0.439300
      8 CAR          0.8280    -0.2480    -3.3640 ce         1 7BV       0.340900
      9 CAT         -0.0370     0.1480    -4.4970 cc         1 7BV       0.436900
     10 NAN         -0.6260     1.2890    -4.6110 nd         1 7BV      -0.418100
     11 SAP         -0.4040    -0.8690    -5.8840 ss         1 7BV      -0.223100
     12 CAV         -1.4050     0.4100    -6.5670 ca         1 7BV      -0.008100
     13 CAE         -2.1420     0.4690    -7.7480 ca         1 7BV      -0.086000
     14 CAU         -1.3780     1.5050    -5.6920 ca         1 7BV       0.059400
     15 CAD         -2.1180     2.6600    -6.0390 ca         1 7BV      -0.016000
     16 CAC         -2.8360     2.7030    -7.1920 ca         1 7BV      -0.174000
     17 CAS         -2.8570     1.6110    -8.0600 ca         1 7BV       0.007600
     18 NAW         -3.5970     1.6720    -9.2430 nh         1 7BV      -0.342000
     19 CAJ         -4.2410     2.9060    -9.3680 c3         1 7BV       0.126800
     20 CAH         -5.2390     2.9140   -10.5460 c3         1 7BV      -0.034900
     21 CAF         -4.4740     3.0620   -11.8370 c3         1 7BV      -0.027400
     22 CAG         -4.1320     1.7050   -12.4830 c3         1 7BV      -0.027400
     23 CAI         -3.6780     0.6700   -11.4390 c3         1 7BV      -0.034900
     24 CAK         -2.7700     1.2850   -10.4040 c3         1 7BV       0.126800
     25 HA           2.8290     0.6370    -1.2220 h1         1 7BV       0.059700
     26 HB2          3.5100    -1.4740    -1.7030 h1         1 7BV       0.053200
     27 HB1          2.0850    -2.1230    -0.8420 h1         1 7BV       0.053200
     28 HAE         -2.1570    -0.3800    -8.4200 ha         1 7BV       0.119000
     29 HAD         -2.1140     3.5180    -5.3780 ha         1 7BV       0.113000
     30 HAC         -3.3970     3.5950    -7.4410 ha         1 7BV       0.119000
     31 HAN         -3.4970     3.6760    -9.5330 h1         1 7BV       0.023200
     32 HAO         -4.7780     3.1170    -8.4510 h1         1 7BV       0.023200
     33 HAJ         -5.7910     1.9820   -10.5590 hc         1 7BV       0.023700
     34 HAK         -5.9240     3.7460   -10.4340 hc         1 7BV       0.023700
     35 HAF         -3.5520     3.5950   -11.6360 hc         1 7BV       0.009700
     36 HAG         -5.0730     3.6380   -12.5320 hc         1 7BV       0.009700
     37 HAI         -5.0100     1.3280   -12.9930 hc         1 7BV       0.009700
     38 HAH         -3.3350     1.8500   -13.2030 hc         1 7BV       0.009700
     39 HAL         -4.5510     0.2630   -10.9440 hc         1 7BV       0.023700
     40 HAM         -3.1460    -0.1280   -11.9430 hc         1 7BV       0.023700
     41 HAP         -2.0250     0.5610   -10.0960 h1         1 7BV       0.023200
     42 HAQ         -2.2880     2.1620   -10.8170 h1         1 7BV       0.023200
@<TRIPOS>BOND
     1     1     2 1   
     2     2     3 1   
     3     2     4 1   
     4     4     5 1   
     5     4     6 1   
     6     4    25 1   
     7     5     8 2   
     8     6     7 1   
     9     6    26 1   
    10     6    27 1   
    11     7     8 1   
    12     8     9 1   
    13     9    10 2   
    14     9    11 1   
    15    10    14 1   
    16    11    12 1   
    17    12    13 ar  
    18    12    14 ar  
    19    13    17 ar  
    20    13    28 1   
    21    14    15 ar  
    22    15    16 ar  
    23    15    29 1   
    24    16    17 ar  
    25    16    30 1   
    26    17    18 1   
    27    18    19 1   
    28    18    24 1   
    29    19    20 1   
    30    19    31 1   
    31    19    32 1   
    32    20    21 1   
    33    20    33 1   
    34    20    34 1   
    35    21    22 1   
    36    21    35 1   
    37    21    36 1   
    38    22    23 1   
    39    22    37 1   
    40    22    38 1   
    41    23    24 1   
    42    23    39 1   
    43    23    40 1   
    44    24    41 1   
    45    24    42 1   
@<TRIPOS>SUBSTRUCTURE
     1 7BV         1 TEMP              0 ****  ****    0 ROOT
