@<TRIPOS>MOLECULE
molecule
   37    38     1     0     0
SMALL
bcc


@<TRIPOS>ATOM
      1 C1           0.0000     0.0000     0.0000 c3         1 7BW      -0.062600
      2 C2           1.5290     0.0000     0.0000 c3         1 7BW      -0.019000
      3 C3           2.0750     1.1880    -0.7960 c3         1 7BW      -0.062600
      4 C6           4.3250    -0.8450     2.4320 c3         1 7BW      -0.057000
      5 C7           3.9840    -1.8880     3.4970 c3         1 7BW      -0.182600
      6 C10          3.4330    -4.0160     5.0690 ca         1 7BW      -0.165000
      7 C11          3.1390    -5.0770     5.9060 ca         1 7BW      -0.133000
      8 C12          3.1500    -6.3710     5.4170 ca         1 7BW       0.141900
      9 C14          3.4580    -6.6070     4.0740 ca         1 7BW      -0.017000
     10 C15          3.4700    -7.9440     3.5630 cg         1 7BW       0.234800
     11 C4           2.0830     0.0000     1.4420 c3         1 7BW      -0.626000
     12 N5           3.2850    -0.8400     1.4010 n          1 7BW      -0.240800
     13 O8           4.0220    -3.1930     2.9160 os         1 7BW      -0.272900
     14 C9           3.7390    -4.2420     3.7330 ca         1 7BW       0.079100
     15 N16          3.4940    -9.0100     3.1700 n1         1 7BW      -0.332800
     16 C17          3.7530    -5.5320     3.2330 ca         1 7BW      -0.091000
     17 C18          3.3080    -1.6050     0.2970 c          1 7BW       0.746500
     18 O19          4.1840    -2.3970     0.0170 o          1 7BW      -0.603500
     19 C20          2.0830    -1.3360    -0.5500 c3         1 7BW      -0.244400
     20 H22         -0.3610     0.9560     0.3590 hc         1 7BW       0.037533
     21 H23         -0.3610    -0.7890     0.6490 hc         1 7BW       0.037533
     22 H21         -0.3610    -0.1680    -1.0080 hc         1 7BW       0.037533
     23 H24          1.7820     2.1120    -0.3120 hc         1 7BW       0.037533
     24 H25          1.6730     1.1640    -1.8020 hc         1 7BW       0.037533
     25 H26          3.1560     1.1290    -0.8380 hc         1 7BW       0.037533
     26 H30          5.2790    -0.3880     2.6670 h1         1 7BW       0.143200
     27 H29          4.3840    -1.3250     1.4620 h1         1 7BW       0.143200
     28 H32          3.1290    -2.4690     3.1730 h1         1 7BW       0.183200
     29 H31          3.7480    -1.3890     4.4290 h1         1 7BW       0.183200
     30 H33          3.4230    -3.0040     5.4540 ha         1 7BW       0.150000
     31 H34          2.9000    -4.8960     6.9470 ha         1 7BW       0.159000
     32 H27          2.5870    -0.9360     1.6480 h1         1 7BW       0.220200
     33 H28          1.2790     0.1630     2.1500 h1         1 7BW       0.220200
     34 H35          3.9920    -5.7090     2.1920 ha         1 7BW       0.168000
     35 H36          2.8460    -1.7250     0.1140 hc         1 7BW       0.117200
     36 H37          1.2800    -2.0530    -0.6680 hc         1 7BW       0.117200
     37 F13          2.8630    -7.4050     6.2380 f          1 7BW      -0.122900
@<TRIPOS>BOND
     1    37     8 1
     2     7     8 ar
     3     7     6 ar
     4     8     9 ar
     5     6    14 ar
     6     9    10 1
     7     9    16 ar
     8     3     2 1
     9    14    16 ar
    10    14    13 1
    11    10    15 3
    12     5    13 1
    13     5     4 1
    14    19     2 1
    15    19    17 1
    16    18    17 2
    17     2    11 1
    18     2     1 1
    19    17    12 1
    20    11    12 1
    21    12     4 1
    22     1    20 1
    23     1    21 1
    24     1    22 1
    25     3    23 1
    26     3    24 1
    27     3    25 1
    28     4    26 1
    29     4    27 1
    30     5    28 1
    31     5    29 1
    32     6    30 1
    33     7    31 1
    34    11    32 1
    35    11    33 1
    36    16    34 1
    37    19    35 1
    38    19    36 1
@<TRIPOS>SUBSTRUCTURE
     1 7BW         1 TEMP              0 ****  ****    0 ROOT
