@<TRIPOS>MOLECULE
7BX
   25    26     1     0     0
SMALL
bcc


@<TRIPOS>ATOM
      1 N4           0.0000     0.0000     0.0000 n7         1 7BX      -0.486100
      2 C5           1.4650     0.0000     0.0000 cx         1 7BX       0.155500
      3 C6           2.1720     0.0000     1.3570 cx         1 7BX      -0.137400
      4 C7           2.1720    -1.2630     0.4940 cx         1 7BX      -0.137400
      5 C8          -0.4720     0.0390    -2.7110 ca         1 7BX      -0.172500
      6 C10          0.9010    -0.1600    -4.6700 ca         1 7BX      -0.155000
      7 C11          0.1090    -1.1930    -5.1290 ca         1 7BX      -0.010000
      8 C12         -0.9890    -1.6140    -4.3760 ca         1 7BX       0.023000
      9 C13         -1.8150    -2.6860    -4.8460 cg         1 7BX       0.224800
     10 C15         -1.2720    -0.9930    -3.1580 ca         1 7BX       0.032000
     11 O1          -2.2090     0.6030    -0.9210 o          1 7BX      -0.583800
     12 S2          -0.8280     0.8240    -1.1740 sy         1 7BX       0.991200
     13 O3          -0.2480     2.1190    -1.2420 o          1 7BX      -0.583800
     14 C9           0.6110     0.4540    -3.4640 ca         1 7BX       0.004000
     15 N14         -2.4650    -3.5460    -5.2020 n1         1 7BX      -0.366800
     16 H17          2.2610     0.2810    -0.6790 h1         1 7BX       0.097700
     17 H19          1.3850     0.1070     2.0940 hc         1 7BX       0.061950
     18 H18          3.2260     0.0900     1.1250 hc         1 7BX       0.061950
     19 H20          1.7020    -2.2180     0.6960 hc         1 7BX       0.061950
     20 H21          3.1460    -1.4890     0.0780 hc         1 7BX       0.061950
     21 H23          1.5890     0.4640    -5.2260 ha         1 7BX       0.120000
     22 H24          0.3450    -1.4580    -6.1520 ha         1 7BX       0.115000
     23 H25         -2.0270    -1.2740    -2.4330 ha         1 7BX       0.133000
     24 H22          1.1890     1.3510    -3.2760 ha         1 7BX       0.127000
     25 H16         -0.8240    -0.3860     0.4170 hn         1 7BX       0.362800
@<TRIPOS>BOND
     1     1     2 1   
     2     1    12 1   
     3     1    25 1   
     4     2     3 1   
     5     2     4 1   
     6     2    16 1   
     7     3     4 1   
     8     3    17 1   
     9     3    18 1   
    10     4    19 1   
    11     4    20 1   
    12     5    10 ar  
    13     5    12 1   
    14     5    14 ar  
    15     6     7 ar  
    16     6    14 ar  
    17     6    21 1   
    18     7     8 ar  
    19     7    22 1   
    20     8     9 1   
    21     8    10 ar  
    22     9    15 3   
    23    10    23 1   
    24    11    12 2   
    25    12    13 2   
    26    14    24 1   
@<TRIPOS>SUBSTRUCTURE
     1 7BX         1 TEMP              0 ****  ****    0 ROOT
