@<TRIPOS>MOLECULE
7C0
   36    36     1     0     0
SMALL
bcc


@<TRIPOS>ATOM
      1 O01          0.0000     0.0000     0.0000 o          1 7C0      -0.619500
      2 C02          1.2150     0.0000     0.0000 c          1 7C0       0.563100
      3 N17          3.9090    -6.5290     4.6000 nz         1 7C0       0.083400
      4 C18          3.7450    -5.1140     4.9590 c3         1 7C0      -0.057200
      5 C19          2.9750    -4.3920     3.8510 c3         1 7C0      -0.036400
      6 C20          2.8050    -2.9190     4.2250 c3         1 7C0      -0.020400
      7 C22          1.8660    -0.7230     3.4910 c3         1 7C0      -0.027400
      8 O25          1.8870     0.0000     1.1660 os         1 7C0      -0.454900
      9 C26          1.0950    -0.0010     2.3820 c3         1 7C0       0.227400
     10 C27          0.8220     1.4190     2.8050 ca         1 7C0      -0.076300
     11 C28          1.7730     2.4000     2.5930 ca         1 7C0      -0.081000
     12 C29          1.5210     3.7030     2.9790 ca         1 7C0      -0.107000
     13 C30          0.3190     4.0260     3.5790 ca         1 7C0      -0.097000
     14 C31         -0.6330     3.0450     3.7920 ca         1 7C0      -0.034600
     15 Cl32        -2.1450     3.4510     4.5450 cl         1 7C0      -0.060400
     16 C33         -0.3840     1.7420     3.4000 ca         1 7C0      -0.086000
     17 H21          4.4130    -7.0010     5.3240 hn         1 7C0       0.220133
     18 H22          4.7200    -4.6570     5.0780 hx         1 7C0       0.082200
     19 H23          3.1950    -5.0390     5.8890 hx         1 7C0       0.082200
     20 H24          2.0000    -4.8500     3.7320 hc         1 7C0       0.037200
     21 H25          3.5250    -4.4680     2.9200 hc         1 7C0       0.037200
     22 H26          2.2550    -2.8430     5.1550 hc         1 7C0       0.020200
     23 H27          3.7800    -2.4620     4.3440 hc         1 7C0       0.020200
     24 H28          1.0610    -2.6530     2.9970 hc         1 7C0       0.035700
     25 H29          2.5860    -2.2720     2.1870 hc         1 7C0       0.035700
     26 H30          2.8410    -0.2660     3.6090 hc         1 7C0       0.012700
     27 H31          1.3160    -0.6470     4.4210 hc         1 7C0       0.012700
     28 H32          0.1570    -0.5120     2.2030 h1         1 7C0       0.047700
     29 H33          2.7150     2.1470     2.1220 ha         1 7C0       0.126000
     30 H34          2.3760     4.3310     2.7570 ha         1 7C0       0.104000
     31 H35          0.1220     5.0470     3.8820 ha         1 7C0       0.105000
     32 H36         -1.1300     0.9740     3.5660 ha         1 7C0       0.112000
     33 H2           3.0090    -6.9520     4.4900 hn         1 7C0       0.220133
     34 OXT          1.8880    -0.0040    -1.1650 o          1 7C0      -0.619500
     35 H173         4.4180    -6.5990     3.7400 hn         1 7C0       0.220133
     36 C21          2.0360    -2.1960     3.1170 c3         1 7C0      -0.028400
@<TRIPOS>BOND
     1     1     2 1   
     2     2     8 1   
     3     2    34 1   
     4     3     4 1   
     5     3    17 1   
     6     3    33 1   
     7     3    35 1   
     8     4     5 1   
     9     4    18 1   
    10     4    19 1   
    11     5     6 1   
    12     5    20 1   
    13     5    21 1   
    14     6    22 1   
    15     6    23 1   
    16     6    36 1   
    17     7     9 1   
    18     7    26 1   
    19     7    27 1   
    20     7    36 1   
    21     8     9 1   
    22     9    10 1   
    23     9    28 1   
    24    10    11 ar  
    25    10    16 ar  
    26    11    12 ar  
    27    11    29 1   
    28    12    13 ar  
    29    12    30 1   
    30    13    14 ar  
    31    13    31 1   
    32    14    15 1   
    33    14    16 ar  
    34    16    32 1   
    35    24    36 1   
    36    25    36 1   
@<TRIPOS>SUBSTRUCTURE
     1 7C0         1 TEMP              0 ****  ****    0 ROOT
