@<TRIPOS>MOLECULE
molecule
   36    36     1     0     0
SMALL
bcc


@<TRIPOS>ATOM
      1 O01          0.0000     0.0000     0.0000 o          1 7C0      -0.564500
      2 C02          1.2150     0.0000     0.0000 c          1 7C0       0.461100
      3 N17          3.9090    -6.5290     4.6000 nz         1 7C0      -0.811600
      4 C18          3.7450    -5.1140     4.9590 c3         1 7C0       0.085800
      5 C19          2.9750    -4.3920     3.8510 c3         1 7C0      -0.110400
      6 C20          2.8050    -2.9190     4.2250 c3         1 7C0      -0.077400
      7 C22          1.8660    -0.7230     3.4910 c3         1 7C0      -0.073400
      8 O25          1.8870     0.0000     1.1660 os         1 7C0      -0.477900
      9 C26          1.0950    -0.0010     2.3820 c3         1 7C0       0.203400
     10 C27          0.8220     1.4190     2.8050 ca         1 7C0      -0.072300
     11 C28          1.7730     2.4000     2.5930 ca         1 7C0      -0.104000
     12 C29          1.5210     3.7030     2.9790 ca         1 7C0      -0.134000
     13 C30          0.3190     4.0260     3.5790 ca         1 7C0      -0.119000
     14 C31         -0.6330     3.0450     3.7920 ca         1 7C0       0.023400
     15 Cl32        -2.1450     3.4510     4.5450 cl         1 7C0      -0.135400
     16 C33         -0.3840     1.7420     3.4000 ca         1 7C0      -0.110000
     17 H21          4.4130    -7.0010     5.3240 hn         1 7C0       0.452800
     18 H22          4.7200    -4.6570     5.0780 hx         1 7C0       0.108200
     19 H23          3.1950    -5.0390     5.8890 hx         1 7C0       0.108200
     20 H24          2.0000    -4.8500     3.7320 hc         1 7C0       0.068700
     21 H25          3.5250    -4.4680     2.9200 hc         1 7C0       0.068700
     22 H26          2.2550    -2.8430     5.1550 hc         1 7C0       0.049200
     23 H27          3.7800    -2.4620     4.3440 hc         1 7C0       0.049200
     24 H28          1.0610    -2.6530     2.9970 hc         1 7C0       0.065200
     25 H29          2.5860    -2.2720     2.1870 hc         1 7C0       0.065200
     26 H30          2.8410    -0.2660     3.6090 hc         1 7C0       0.041200
     27 H31          1.3160    -0.6470     4.4210 hc         1 7C0       0.041200
     28 H32          0.1570    -0.5120     2.2030 h1         1 7C0       0.075700
     29 H33          2.7150     2.1470     2.1220 ha         1 7C0       0.155000
     30 H34          2.3760     4.3310     2.7570 ha         1 7C0       0.133000
     31 H35          0.1220     5.0470     3.8820 ha         1 7C0       0.133000
     32 H36         -1.1300     0.9740     3.5660 ha         1 7C0       0.138000
     33 H2           3.0090    -6.9520     4.4900 hn         1 7C0       0.452800
     34 OXT          1.8880    -0.0040    -1.1650 o          1 7C0      -0.564500
     35 H173         4.4180    -6.5990     3.7400 hn         1 7C0       0.452800
     36 C21          2.0360    -2.1960     3.1170 c3         1 7C0      -0.077400
@<TRIPOS>BOND
     1     4     3 1   
     2     4     5 1   
     3     5     6 1   
     4     6    36 1   
     5    36     7 1   
     6     1     2 1   
     7     2     8 1   
     8     8     9 1   
     9     7     9 1   
    10     9    10 1   
    11    10    16 ar  
    12    10    11 ar  
    13    16    14 ar  
    14    11    12 ar  
    15    14    15 1   
    16    14    13 ar  
    17    12    13 ar  
    18     3    17 1   
    19     4    18 1   
    20     4    19 1   
    21     5    20 1   
    22     5    21 1   
    23     6    22 1   
    24     6    23 1   
    25    36    24 1   
    26    36    25 1   
    27     7    26 1   
    28     7    27 1   
    29     9    28 1   
    30    11    29 1   
    31    12    30 1   
    32    13    31 1   
    33    16    32 1   
    34     3    33 1   
    35     2    34 1   
    36    35     3 1   
@<TRIPOS>SUBSTRUCTURE
     1 7C0         1 TEMP              0 ****  ****    0 ROOT
