@<TRIPOS>MOLECULE
molecule
   35    37     1     0     0
SMALL
bcc


@<TRIPOS>ATOM
      1 C1           0.0000     0.0000     0.0000 ca         1 7C1       0.015700
      2 C2           1.3870     0.0000     0.0000 ca         1 7C1      -0.104000
      3 C3           2.0880     0.0000     1.1910 ca         1 7C1      -0.110000
      4 C4           1.4140     0.0010     2.4030 ca         1 7C1      -0.056000
      5 C5           0.0290     0.0020     2.4190 ca         1 7C1      -0.147600
      6 C6          -0.6860     0.0020     1.2030 ca         1 7C1      -0.167600
      7 C7          -2.1170     0.0030     1.5760 c          1 7C1       0.735100
      8 C8          -0.9910     0.0020     3.4880 c          1 7C1       0.731100
      9 N9          -2.2100     0.0040     2.9180 n          1 7C1      -0.390600
     10 N20         -8.2770     0.0140     5.1030 nz         1 7C1      -0.741600
     11 O10         -3.0510     0.0030     0.8010 o          1 7C1      -0.572500
     12 C21         -0.7560     0.0060    -1.3030 c3         1 7C1      -0.057800
     13 O11         -0.7670     0.0030     4.6820 o          1 7C1      -0.563500
     14 C12         -3.4150     0.0060     3.6270 ca         1 7C1       0.119600
     15 C13         -3.4020     0.0070     5.0170 ca         1 7C1      -0.140000
     16 C14         -4.5880     0.0100     5.7190 ca         1 7C1      -0.080000
     17 C15         -5.8030     0.0100     5.0320 ca         1 7C1      -0.266900
     18 C16         -5.8130     0.0090     3.6370 ca         1 7C1      -0.080000
     19 C17         -4.6240     0.0130     2.9410 ca         1 7C1      -0.140000
     20 C18         -7.0780     0.0120     5.7830 ce         1 7C1       0.524800
     21 N19         -7.0670     0.0130     7.0860 n2         1 7C1      -0.731100
     22 H2           2.0690    -0.0010    -0.8410 ha         1 7C1       0.158000
     23 H3           3.1710    -0.0010     1.2070 ha         1 7C1       0.155000
     24 H4           2.0390     0.0010     3.2880 ha         1 7C1       0.158000
     25 HN20        -8.3290     0.8260     4.5200 hn         1 7C1       0.473133
     26 HN2A        -9.0320     0.0260     5.7600 hn         1 7C1       0.473133
     27 H21         -1.3760     0.8930    -1.3570 hc         1 7C1       0.061033
     28 H21A        -0.0540     0.0060    -2.1280 hc         1 7C1       0.061033
     29 H21B        -1.3820    -0.8760    -1.3610 hc         1 7C1       0.061033
     30 H13         -2.4580     0.0060     5.5500 ha         1 7C1       0.206500
     31 H14         -4.5770    -0.0360     6.8010 ha         1 7C1       0.128500
     32 H16         -6.7540    -0.0360     3.1020 ha         1 7C1       0.128500
     33 H17         -4.6310     0.0210     1.8580 ha         1 7C1       0.206500
     34 HN19        -6.1970     0.0120     7.5810 hn         1 7C1       0.483400
     35 H203        -8.3410    -0.8090     4.5370 hn         1 7C1       0.473133
@<TRIPOS>BOND
     1     6     1 ar  
     2    12     1 1   
     3     1     2 ar  
     4     2     3 ar  
     5     2    22 1   
     6     4     3 ar  
     7     3    23 1   
     8     5     4 ar  
     9     4    24 1   
    10     8     5 1   
    11     6     5 ar  
    12     7     6 1   
    13    11     7 2   
    14     9     7 1   
    15     9     8 1   
    16    13     8 2   
    17    14     9 1   
    18    10    20 1   
    19    10    25 1   
    20    10    26 1   
    21    12    27 1   
    22    12    28 1   
    23    12    29 1   
    24    19    14 ar  
    25    15    14 ar  
    26    16    15 ar  
    27    15    30 1   
    28    17    16 ar  
    29    16    31 1   
    30    20    17 1   
    31    17    18 ar  
    32    18    19 ar  
    33    18    32 1   
    34    19    33 1   
    35    21    20 2   
    36    21    34 1   
    37    35    10 1   
@<TRIPOS>SUBSTRUCTURE
     1 7C1         1 TEMP              0 ****  ****    0 ROOT
