@<TRIPOS>MOLECULE
7C1
   35    37     1     0     0
SMALL
bcc


@<TRIPOS>ATOM
      1 C1           0.0000     0.0000     0.0000 ca         1 7C1       0.025700
      2 C2           1.3870     0.0000     0.0000 ca         1 7C1      -0.078000
      3 C3           2.0880     0.0000     1.1910 ca         1 7C1      -0.086000
      4 C4           1.4140     0.0010     2.4030 ca         1 7C1      -0.015000
      5 C5           0.0290     0.0020     2.4190 ca         1 7C1      -0.166600
      6 C6          -0.6860     0.0020     1.2030 ca         1 7C1      -0.191600
      7 C7          -2.1170     0.0030     1.5760 c          1 7C1       0.662100
      8 C8          -0.9910     0.0020     3.4880 c          1 7C1       0.654100
      9 N9          -2.2100     0.0040     2.9180 n          1 7C1       0.019400
     10 N20         -8.2770     0.0140     5.1030 nz         1 7C1       0.122400
     11 O10         -3.0510     0.0030     0.8010 o          1 7C1      -0.610500
     12 C21         -0.7560     0.0060    -1.3030 c3         1 7C1       0.049200
     13 O11         -0.7670     0.0030     4.6820 o          1 7C1      -0.595500
     14 C12         -3.4150     0.0060     3.6270 ca         1 7C1      -0.018400
     15 C13         -3.4020     0.0070     5.0170 ca         1 7C1      -0.136500
     16 C14         -4.5880     0.0100     5.7190 ca         1 7C1      -0.033000
     17 C15         -5.8030     0.0100     5.0320 ca         1 7C1      -0.230900
     18 C16         -5.8130     0.0090     3.6370 ca         1 7C1      -0.033000
     19 C17         -4.6240     0.0130     2.9410 ca         1 7C1      -0.136500
     20 C18         -7.0780     0.0120     5.7830 ce         1 7C1       0.240800
     21 N19         -7.0670     0.0130     7.0860 n2         1 7C1      -0.468100
     22 H2           2.0690    -0.0010    -0.8410 ha         1 7C1       0.125000
     23 H3           3.1710    -0.0010     1.2070 ha         1 7C1       0.119000
     24 H4           2.0390     0.0010     3.2880 ha         1 7C1       0.122000
     25 HN20        -8.3280     0.8240     4.5180 hn         1 7C1       0.226133
     26 HN2A        -9.0320     0.0290     5.7600 hn         1 7C1       0.226133
     27 H21         -0.0540     0.0060    -2.1280 hc         1 7C1       0.022367
     28 H21A        -1.3820    -0.8760    -1.3610 hc         1 7C1       0.022367
     29 H21B        -1.3760     0.8930    -1.3570 hc         1 7C1       0.022367
     30 H13         -2.4580     0.0060     5.5500 ha         1 7C1       0.182500
     31 H14         -4.5770    -0.0350     6.8010 ha         1 7C1       0.106000
     32 H16         -6.7540    -0.0360     3.1020 ha         1 7C1       0.106000
     33 H17         -4.6310     0.0210     1.8580 ha         1 7C1       0.182500
     34 HN19        -7.9290     0.0150     7.5940 hn         1 7C1       0.335400
     35 H203        -8.3420    -0.8100     4.5390 hn         1 7C1       0.226133
@<TRIPOS>BOND
     1     1     2 ar  
     2     1     6 ar  
     3     1    12 1   
     4     2     3 ar  
     5     2    22 1   
     6     3     4 ar  
     7     3    23 1   
     8     4     5 ar  
     9     4    24 1   
    10     5     6 ar  
    11     5     8 1   
    12     6     7 1   
    13     7     9 1   
    14     7    11 2   
    15     8     9 1   
    16     8    13 2   
    17     9    14 1   
    18    10    20 1   
    19    10    25 1   
    20    10    26 1   
    21    10    35 1   
    22    12    27 1   
    23    12    28 1   
    24    12    29 1   
    25    14    15 ar  
    26    14    19 ar  
    27    15    16 ar  
    28    15    30 1   
    29    16    17 ar  
    30    16    31 1   
    31    17    18 ar  
    32    17    20 1   
    33    18    19 ar  
    34    18    32 1   
    35    19    33 1   
    36    20    21 2   
    37    21    34 1   
@<TRIPOS>SUBSTRUCTURE
     1 7C1         1 TEMP              0 ****  ****    0 ROOT
