@<TRIPOS>MOLECULE
7C2
   41    40     1     0     0
SMALL
bcc


@<TRIPOS>ATOM
      1 C01          0.0000     0.0000     0.0000 c3         1 7C2       0.003900
      2 C02          1.5300     0.0000     0.0000 c3         1 7C2      -0.028400
      3 C03          2.0410     0.0000     1.4410 c3         1 7C2      -0.028400
      4 C04          3.5710     0.0000     1.4410 c3         1 7C2      -0.048400
      5 C05          4.0810     0.0010     2.8830 c3         1 7C2      -0.048400
      6 C06          5.6110     0.0010     2.8830 c3         1 7C2       0.254100
      7 C24          6.1220    -0.1250     4.3190 c3         1 7C2      -0.241400
      8 C25          7.6470    -0.2510     4.3100 c3         1 7C2       0.028600
      9 C26          8.1570    -0.3760     5.7470 c3         1 7C2      -0.019400
     10 C27          9.6820    -0.5010     5.7370 c3         1 7C2      -0.039400
     11 C28         10.1930    -0.6270     7.1730 c3         1 7C2      -0.057200
     12 N29         11.6570    -0.7470     7.1640 nz         1 7C2       0.083400
     13 O07          6.0950     1.2420     2.3030 os         1 7C2      -0.446900
     14 O23          6.7450     2.3750     0.3750 o          1 7C2      -0.628000
     15 H1          -0.3610    -0.0070    -1.0210 hc         1 7C2      -0.005967
     16 H2          -0.3610    -0.8810     0.5160 hc         1 7C2      -0.005967
     17 H3          -0.3610     0.8880     0.5050 hc         1 7C2      -0.005967
     18 H4           1.8910    -0.8840    -0.5110 hc         1 7C2       0.019700
     19 H5           1.8910     0.8840    -0.5110 hc         1 7C2       0.019700
     20 H6           1.6800     0.8840     1.9520 hc         1 7C2       0.000700
     21 H7           1.6800    -0.8850     1.9520 hc         1 7C2       0.000700
     22 H8           3.9320     0.8850     0.9300 hc         1 7C2       0.053700
     23 H9           3.9330    -0.8840     0.9300 hc         1 7C2       0.053700
     24 H10          3.7200     0.8860     3.3940 hc         1 7C2       0.005700
     25 H11          3.7200    -0.8840     3.3940 hc         1 7C2       0.005700
     26 H12          5.9710    -0.8360     2.2970 h1         1 7C2       0.022700
     27 H30          5.5310    -0.5700     5.1100 hc         1 7C2       0.065700
     28 H31          6.2410    -0.9480     3.6240 hc         1 7C2       0.065700
     29 H32          8.0790     0.6290     3.8490 hc         1 7C2       0.022700
     30 H33          7.9330    -1.1310     3.7470 hc         1 7C2       0.022700
     31 H34          7.8710     0.5040     6.3100 hc         1 7C2       0.022200
     32 H35          7.7260    -1.2560     6.2080 hc         1 7C2       0.022200
     33 H36         10.1140     0.3790     5.2760 hc         1 7C2       0.036200
     34 H37          9.9690    -1.3810     5.1730 hc         1 7C2       0.036200
     35 H38          9.9060     0.2520     7.7370 hx         1 7C2       0.082200
     36 H39          9.7620    -1.5080     7.6330 hx         1 7C2       0.082200
     37 H42         11.9240    -1.5430     6.6200 hn         1 7C2       0.219800
     38 H13         12.0570     0.0790     6.7650 hn         1 7C2       0.219800
     39 OXT          6.0770     0.2620     0.3140 o          1 7C2      -0.628000
     40 C08          6.2980     1.2570     0.9740 c          1 7C2       0.562100
     41 H293        11.9880    -0.8580     8.1020 hn         1 7C2       0.219800
@<TRIPOS>BOND
     1     1     2 1   
     2     1    15 1   
     3     1    16 1   
     4     1    17 1   
     5     2     3 1   
     6     2    18 1   
     7     2    19 1   
     8     3     4 1   
     9     3    20 1   
    10     3    21 1   
    11     4     5 1   
    12     4    22 1   
    13     4    23 1   
    14     5     6 1   
    15     5    24 1   
    16     5    25 1   
    17     6     7 1   
    18     6    13 1   
    19     6    26 1   
    20     7     8 1   
    21     7    27 1   
    22     7    28 1   
    23     8     9 1   
    24     8    29 1   
    25     8    30 1   
    26     9    10 1   
    27     9    31 1   
    28     9    32 1   
    29    10    11 1   
    30    10    33 1   
    31    10    34 1   
    32    11    12 1   
    33    11    35 1   
    34    11    36 1   
    35    12    37 1   
    36    12    38 1   
    37    12    41 1   
    38    13    40 1   
    39    14    40 1   
    40    39    40 1   
@<TRIPOS>SUBSTRUCTURE
     1 7C2         1 TEMP              0 ****  ****    0 ROOT
