@<TRIPOS>MOLECULE
molecule
   41    40     1     0     0
SMALL
bcc


@<TRIPOS>ATOM
      1 C01          0.0000     0.0000     0.0000 c3         1 7C2      -0.093100
      2 C02          1.5300     0.0000     0.0000 c3         1 7C2      -0.081400
      3 C03          2.0410     0.0000     1.4410 c3         1 7C2      -0.082400
      4 C04          3.5710     0.0000     1.4410 c3         1 7C2      -0.078400
      5 C05          4.0810     0.0010     2.8830 c3         1 7C2      -0.093400
      6 C06          5.6110     0.0010     2.8830 c3         1 7C2       0.216100
      7 C24          6.1220    -0.1250     4.3190 c3         1 7C2      -0.241400
      8 C25          7.6470    -0.2510     4.3100 c3         1 7C2      -0.041400
      9 C26          8.1570    -0.3760     5.7470 c3         1 7C2      -0.072400
     10 C27          9.6820    -0.5010     5.7370 c3         1 7C2      -0.113400
     11 C28         10.1930    -0.6270     7.1730 c3         1 7C2       0.085800
     12 N29         11.6570    -0.7470     7.1640 nz         1 7C2      -0.811600
     13 O07          6.0950     1.2420     2.3030 os         1 7C2      -0.466900
     14 O23          6.7450     2.3750     0.3750 o          1 7C2      -0.574000
     15 H1          -0.3610    -0.0070    -1.0210 hc         1 7C2       0.025367
     16 H2          -0.3610    -0.8810     0.5160 hc         1 7C2       0.025367
     17 H3          -0.3610     0.8880     0.5050 hc         1 7C2       0.025367
     18 H4           1.8910    -0.8840    -0.5110 hc         1 7C2       0.047200
     19 H5           1.8910     0.8840    -0.5110 hc         1 7C2       0.047200
     20 H6           1.6800     0.8840     1.9520 hc         1 7C2       0.025700
     21 H7           1.6800    -0.8850     1.9520 hc         1 7C2       0.025700
     22 H8           3.9320     0.8850     0.9300 hc         1 7C2       0.075200
     23 H9           3.9330    -0.8840     0.9300 hc         1 7C2       0.075200
     24 H10          3.7200     0.8860     3.3940 hc         1 7C2       0.032200
     25 H11          3.7200    -0.8840     3.3940 hc         1 7C2       0.032200
     26 H12          5.9710    -0.8360     2.2970 h1         1 7C2       0.043700
     27 H30          5.5310    -0.5700     5.1100 hc         1 7C2       0.084200
     28 H31          6.2410    -0.9480     3.6240 hc         1 7C2       0.084200
     29 H32          8.0790     0.6290     3.8490 hc         1 7C2       0.052700
     30 H33          7.9330    -1.1310     3.7470 hc         1 7C2       0.052700
     31 H34          7.8710     0.5040     6.3100 hc         1 7C2       0.051200
     32 H35          7.7260    -1.2560     6.2080 hc         1 7C2       0.051200
     33 H36         10.1140     0.3790     5.2760 hc         1 7C2       0.067200
     34 H37          9.9690    -1.3810     5.1730 hc         1 7C2       0.067200
     35 H38          9.9060     0.2520     7.7370 hx         1 7C2       0.108200
     36 H39          9.7620    -1.5080     7.6330 hx         1 7C2       0.108200
     37 H42         11.9240    -1.5430     6.6200 hn         1 7C2       0.452467
     38 H13         12.0570     0.0790     6.7650 hn         1 7C2       0.452467
     39 OXT          6.0770     0.2620     0.3140 o          1 7C2      -0.574000
     40 C08          6.2980     1.2570     0.9740 c          1 7C2       0.458100
     41 H293        11.9880    -0.8580     8.1020 hn         1 7C2       0.452467
@<TRIPOS>BOND
     1    11    12 1   
     2    11    10 1   
     3    10     9 1   
     4     9     8 1   
     5     8     7 1   
     6    14    40 1   
     7    40    13 1   
     8     7     6 1   
     9    13     6 1   
    10     6     5 1   
    11     5     4 1   
    12     4     3 1   
    13     1     2 1   
    14     3     2 1   
    15     1    15 1   
    16     1    16 1   
    17     1    17 1   
    18     2    18 1   
    19     2    19 1   
    20     3    20 1   
    21     3    21 1   
    22     4    22 1   
    23     4    23 1   
    24     5    24 1   
    25     5    25 1   
    26     6    26 1   
    27     7    27 1   
    28     7    28 1   
    29     8    29 1   
    30     8    30 1   
    31     9    31 1   
    32     9    32 1   
    33    10    33 1   
    34    10    34 1   
    35    11    35 1   
    36    11    36 1   
    37    12    37 1   
    38    12    38 1   
    39    40    39 1   
    40    41    12 1   
@<TRIPOS>SUBSTRUCTURE
     1 7C2         1 TEMP              0 ****  ****    0 ROOT
