@<TRIPOS>MOLECULE
7C3
   21    20     1     0     0
SMALL
bcc


@<TRIPOS>ATOM
      1 OXT          0.0000     0.0000     0.0000 o          1 7C3      -0.845800
      2 C            1.2120     0.0000     0.0000 c          1 7C3       0.894600
      3 O            1.8860     0.0000     1.1650 o          1 7C3      -0.845800
      4 CA           1.9570     0.0000    -1.2910 c          1 7C3       0.515100
      5 OA           3.1660     0.0000    -1.2920 o          1 7C3      -0.575100
      6 CB           1.2040     0.0000    -2.5960 c3         1 7C3      -0.137400
      7 CG           2.1980     0.0010    -3.7590 c3         1 7C3      -0.015400
      8 CD           1.4320     0.0000    -5.0840 c3         1 7C3      -0.039400
      9 CE           2.4260     0.0010    -6.2470 c3         1 7C3      -0.057200
     10 NZ           1.6920     0.0000    -7.5190 nz         1 7C3       0.080400
     11 H2           0.5820    -0.8850    -2.6530 hc         1 7C3       0.038700
     12 H3           0.5810     0.8840    -2.6530 hc         1 7C3       0.038700
     13 H4           2.8210    -0.8830    -3.7020 hc         1 7C3       0.032700
     14 H5           2.8200     0.8860    -3.7020 hc         1 7C3       0.032700
     15 H6           0.8100    -0.8850    -5.1410 hc         1 7C3       0.029700
     16 H7           0.8090     0.8850    -5.1410 hc         1 7C3       0.029700
     17 H8           3.0480     0.8860    -6.1900 hx         1 7C3       0.084700
     18 H9           3.0500    -0.8830    -6.1900 hx         1 7C3       0.084700
     19 H10          2.3420     0.0010    -8.2800 hn         1 7C3       0.218467
     20 H11          1.1150     0.8170    -7.5720 hn         1 7C3       0.218467
     21 HZ3          1.1170    -0.8180    -7.5720 hn         1 7C3       0.218467
@<TRIPOS>BOND
     1     1     2 1   
     2     2     3 1   
     3     2     4 1   
     4     4     5 2   
     5     4     6 1   
     6     6     7 1   
     7     6    11 1   
     8     6    12 1   
     9     7     8 1   
    10     7    13 1   
    11     7    14 1   
    12     8     9 1   
    13     8    15 1   
    14     8    16 1   
    15     9    10 1   
    16     9    17 1   
    17     9    18 1   
    18    10    19 1   
    19    10    20 1   
    20    10    21 1   
@<TRIPOS>SUBSTRUCTURE
     1 7C3         1 TEMP              0 ****  ****    0 ROOT
