@<TRIPOS>MOLECULE
molecule
   21    20     1     0     0
SMALL
bcc


@<TRIPOS>ATOM
      1 OXT          0.0000     0.0000     0.0000 o          1 7C3      -0.792800
      2 C            1.2120     0.0000     0.0000 c          1 7C3       0.807600
      3 O            1.8860     0.0000     1.1650 o          1 7C3      -0.792800
      4 CA           1.9570     0.0000    -1.2910 c          1 7C3       0.475100
      5 OA           3.1660     0.0000    -1.2920 o          1 7C3      -0.545100
      6 CB           1.2040     0.0000    -2.5960 c3         1 7C3      -0.189400
      7 CG           2.1980     0.0010    -3.7590 c3         1 7C3      -0.070400
      8 CD           1.4320     0.0000    -5.0840 c3         1 7C3      -0.113400
      9 CE           2.4260     0.0010    -6.2470 c3         1 7C3       0.084800
     10 NZ           1.6920     0.0000    -7.5190 nz         1 7C3      -0.812600
     11 H2           0.5820    -0.8850    -2.6530 hc         1 7C3       0.067700
     12 H3           0.5810     0.8840    -2.6530 hc         1 7C3       0.067700
     13 H4           2.8210    -0.8830    -3.7020 hc         1 7C3       0.061700
     14 H5           2.8200     0.8860    -3.7020 hc         1 7C3       0.061700
     15 H6           0.8100    -0.8850    -5.1410 hc         1 7C3       0.059700
     16 H7           0.8090     0.8850    -5.1410 hc         1 7C3       0.059700
     17 H8           3.0480     0.8860    -6.1900 hx         1 7C3       0.110700
     18 H9           3.0500    -0.8830    -6.1900 hx         1 7C3       0.110700
     19 H10          2.3420     0.0010    -8.2800 hn         1 7C3       0.449800
     20 H11          1.1150     0.8170    -7.5720 hn         1 7C3       0.449800
     21 HZ3          1.1170    -0.8180    -7.5720 hn         1 7C3       0.449800
@<TRIPOS>BOND
     1     9     8 1
     2     9    10 1
     3     8     7 1
     4     7     6 1
     5     6     4 1
     6     3     2 1
     7     4     2 1
     8     4     5 2
     9     2     1 1
    10     6    11 1
    11     6    12 1
    12     7    13 1
    13     7    14 1
    14     8    15 1
    15     8    16 1
    16     9    17 1
    17     9    18 1
    18    10    19 1
    19    10    20 1
    20    21    10 1
@<TRIPOS>SUBSTRUCTURE
     1 7C3         1 TEMP              0 ****  ****    0 ROOT
