@<TRIPOS>MOLECULE
molecule
   50    54     1     0     0
SMALL
bcc


@<TRIPOS>ATOM
      1 N1           0.0000     0.0000     0.0000 nz         1 7C5      -0.751600
      2 N3          13.6160     3.1300    -0.3820 nb         1 7C5      -0.757000
      3 C4           3.5510     0.0000     0.0000 c          1 7C5       0.606000
      4 C5           4.1990    -0.0040     4.1110 ca         1 7C5       0.432900
      5 C6           5.2840    -0.0020     3.2270 ca         1 7C5       0.275500
      6 C7           9.0390    -0.0040     3.4940 c3         1 7C5       0.154400
      7 C8          11.3970     1.5550     1.2730 c3         1 7C5       0.225800
      8 C10         11.4990    -0.1280     2.9940 c3         1 7C5       0.072100
      9 C13         14.4140     3.9670    -1.0110 ca         1 7C5       0.719900
     10 C15         10.7150     3.9810     1.4290 cc         1 7C5       0.425700
     11 C17          6.6660    -0.0030     3.7550 c          1 7C5       0.555600
     12 C1           1.2810    -0.0000     0.4740 cd         1 7C5       0.711100
     13 C2           2.7470    -0.0020     2.3430 ca         1 7C5       0.554900
     14 C3           3.8400     0.0000     1.4510 ca         1 7C5       0.205500
     15 C9          12.2390     1.1410     2.5070 c3         1 7C5       0.070100
     16 O2          12.1500    -1.3040     2.5090 oh         1 7C5      -0.566800
     17 O3          13.5830     0.8340     2.1270 oh         1 7C5      -0.552800
     18 C11         12.5460     3.5740     0.2700 ca         1 7C5       0.437800
     19 C12         12.2770     4.9530     0.2800 ca         1 7C5      -0.174200
     20 C14         13.1580     5.8070    -0.4040 ca         1 7C5       0.785200
     21 N2          11.5460     2.9880     1.0050 na         1 7C5      -0.298000
     22 N4          14.2010     5.2710    -1.0280 nb         1 7C5      -0.766000
     23 N5          12.9450     7.1740    -0.4290 nv         1 7C5      -1.052500
     24 N6          11.1460     5.1340     1.0050 nd         1 7C5      -0.546100
     25 N7           2.2700    -0.0000    -0.3940 nc         1 7C5      -0.648100
     26 N8           1.4740    -0.0010     1.8200 na         1 7C5      -0.800900
     27 N9           2.9630    -0.0020     3.6520 nb         1 7C5      -0.677000
     28 N10          5.0770    -0.0010     1.9140 nb         1 7C5      -0.506000
     29 C16         10.0890    -0.0010     2.3830 c3         1 7C5       0.097100
     30 O4          10.0440     1.2460     1.6700 os         1 7C5      -0.400600
     31 O5           7.7110    -0.0020     2.9050 os         1 7C5      -0.380900
     32 O6           6.8580    -0.0040     4.9540 o          1 7C5      -0.520000
     33 H1          -0.5580     0.7090     0.4330 hn         1 7C5       0.488467
     34 H2           0.0180     0.1370    -0.9910 hn         1 7C5       0.488467
     35 H3           4.3890     0.0110     5.1770 h4         1 7C5       0.089100
     36 H4           9.1520    -0.8960     4.0980 h1         1 7C5       0.071200
     37 H5           9.1650     0.8800     4.1070 h1         1 7C5       0.071200
     38 H6          11.6730     0.9710     0.4030 h2         1 7C5       0.094700
     39 H7          11.3840    -0.1550     4.0710 h1         1 7C5       0.109700
     40 H9          10.7690     3.3660     2.3190 h5         1 7C5       0.111800
     41 H10         12.2160     1.9100     3.2690 h1         1 7C5       0.101700
     42 H11         12.3270    -1.1660     1.5930 ho         1 7C5       0.410000
     43 H12         13.6240    -0.0960     1.9760 ho         1 7C5       0.411000
     44 H13         12.1410     7.5520    -0.8890 hn         1 7C5       0.447300
     45 H14         13.5070     7.7630     0.1540 hn         1 7C5       0.447300
     46 H16          9.9320    -0.8230     1.6960 h1         1 7C5       0.083700
     47 H15          0.6840     0.0010     2.4340 hn         1 7C5       0.473800
     48 H131        -0.4110    -0.8920     0.1920 hn         1 7C5       0.488467
     49 O1           4.4560    -0.0040    -0.8180 o          1 7C5      -0.386100
     50 H8          15.2810     3.5710    -1.5250 h5         1 7C5       0.068100
@<TRIPOS>BOND
     1    23    20 1   
     2    49     3 2   
     3    24    19 1   
     4    24    10 2   
     5    20    19 ar  
     6    20    22 ar  
     7     3    25 1   
     8     3    14 1   
     9    19    18 ar  
    10    25    12 2   
    11    10    21 1   
    12    22     9 ar  
    13    32    11 2   
    14    28    14 ar  
    15    28     5 ar  
    16    14    13 ar  
    17    18    21 1   
    18    18     2 ar  
    19    21     7 1   
    20    12     1 1   
    21    12    26 1   
    22     9     2 ar  
    23    11     5 1   
    24    11    31 1   
    25     5     4 ar  
    26    13    26 1   
    27    13    27 ar  
    28    30     7 1   
    29    30    29 1   
    30     7    15 1   
    31     6    31 1   
    32     6    29 1   
    33    15     8 1   
    34    15    17 1   
    35     4    27 ar  
    36    29     8 1   
    37     8    16 1   
    38     1    33 1   
    39     1    34 1   
    40     4    35 1   
    41     6    36 1   
    42     6    37 1   
    43     7    38 1   
    44     8    39 1   
    45     9    50 1   
    46    10    40 1   
    47    15    41 1   
    48    16    42 1   
    49    17    43 1   
    50    23    44 1   
    51    23    45 1   
    52    29    46 1   
    53    26    47 1   
    54    48     1 1   
@<TRIPOS>SUBSTRUCTURE
     1 7C5         1 TEMP              0 ****  ****    0 ROOT
