@<TRIPOS>MOLECULE
molecule
   47    51     1     0     0
SMALL
bcc


@<TRIPOS>ATOM
      1 C11          0.0000     0.0000     0.0000 c3         1 7C6      -0.118100
      2 C1           1.5300     0.0000     0.0000 c3         1 7C6       0.257500
      3 C2           2.0560     0.0000     1.4540 c3         1 7C6      -0.140700
      4 C3           0.9830    -0.5610     2.3410 c          1 7C6       0.704500
      5 O1          -0.1740    -0.2880     2.0980 o          1 7C6      -0.623500
      6 N2           1.2510    -1.3490     3.3900 n          1 7C6      -0.365000
      7 C12          0.1640    -1.7470     4.2880 c3         1 7C6       0.082300
      8 C4           2.5430    -1.7940     3.6400 ca         1 7C6       0.112600
      9 C5           2.8530    -2.4450     4.8310 ca         1 7C6      -0.300300
     10 C6           4.1500    -2.8640     5.0440 ca         1 7C6       0.453200
     11 N3           5.0830    -2.6530     4.1340 nb         1 7C6      -0.710000
     12 C7           4.8240    -2.0490     2.9920 ca         1 7C6       0.460200
     13 C8           3.5470    -1.6030     2.6990 ca         1 7C6      -0.260600
     14 C9           3.2670    -0.9480     1.3830 c3         1 7C6      -0.020400
     15 C10          2.8140    -1.9920     0.3400 c3         1 7C6       0.238800
     16 N1           2.0300    -1.2230    -0.6450 n3         1 7C6      -0.829500
     17 S1           1.7580    -1.6640    -2.2180 sy         1 7C6       1.449200
     18 O2           1.4730    -0.4670    -2.9280 o          1 7C6      -0.631300
     19 O3           2.8130    -2.5470    -2.5760 o          1 7C6      -0.631300
     20 C13          0.2790    -2.6220    -2.2430 ca         1 7C6      -0.316500
     21 C14          0.3420    -3.9930    -2.0780 ca         1 7C6      -0.016000
     22 C15         -0.8200    -4.7470    -2.0980 ca         1 7C6       0.023100
     23 O4          -1.0290    -6.0900    -1.9620 os         1 7C6      -0.323900
     24 C19         -2.3550    -6.3250    -2.4720 c3         1 7C6       0.330200
     25 O5          -3.0300    -5.0710    -2.2630 os         1 7C6      -0.323900
     26 C16         -2.0500    -4.1220    -2.2830 ca         1 7C6       0.104100
     27 C17         -2.1060    -2.7470    -2.4470 ca         1 7C6      -0.138000
     28 C18         -0.9430    -1.9990    -2.4210 ca         1 7C6      -0.019000
     29 H1          -0.3610     0.7540     0.6890 hc         1 7C6       0.058367
     30 H2          -0.3610    -0.9740     0.3080 hc         1 7C6       0.058367
     31 H3          -0.3610     0.2200    -0.9970 hc         1 7C6       0.058367
     32 H4           1.9040     0.8710    -0.5250 h1         1 7C6       0.072700
     33 H5           2.3500     0.9950     1.7660 hc         1 7C6       0.099700
     34 H6          -0.7660    -1.3110     3.9440 h1         1 7C6       0.057367
     35 H7           0.3780    -1.3980     5.2910 h1         1 7C6       0.057367
     36 H8           0.0770    -2.8270     4.2920 h1         1 7C6       0.057367
     37 H9           2.0880    -2.6180     5.5780 ha         1 7C6       0.147000
     38 H10          4.4070    -3.3650     5.9700 h4         1 7C6       0.029100
     39 H11          5.6210    -1.8980     2.2740 h4         1 7C6       0.030100
     40 H12          4.1430    -0.4170     1.0300 hc         1 7C6       0.080700
     41 H13          2.1930    -2.7460     0.8080 h1         1 7C6       0.060700
     42 H14          3.6750    -2.4460    -0.1360 h1         1 7C6       0.060700
     43 H15          1.3030    -4.4820    -1.9710 ha         1 7C6       0.163000
     44 H16         -2.8390    -7.1030    -1.8940 h2         1 7C6       0.075700
     45 H17         -2.3070    -6.5450    -3.5310 h2         1 7C6       0.075700
     46 H18         -3.0610    -2.2560    -2.5860 ha         1 7C6       0.151000
     47 H19         -0.9850    -0.9280    -2.5750 ha         1 7C6       0.162000
@<TRIPOS>BOND
     1    19    17 2
     2    18    17 2
     3    17    20 1
     4    17    16 1
     5    21    20 ar
     6    21    22 ar
     7    20    28 ar
     8    22    23 1
     9    22    26 ar
    10    28    27 ar
    11    24    23 1
    12    24    25 1
    13    16    15 1
    14    16     2 1
    15    26    27 ar
    16    26    25 1
    17    15    14 1
    18     2     1 1
    19     2     3 1
    20    12    11 ar
    21    12    13 ar
    22    14     3 1
    23    14    13 1
    24    11    10 ar
    25     3     4 1
    26    13     8 ar
    27    10     9 ar
    28     8     9 ar
    29     8     6 1
    30     4     6 1
    31     4     5 2
    32     6     7 1
    33     1    29 1
    34     1    30 1
    35     1    31 1
    36     2    32 1
    37     3    33 1
    38     7    34 1
    39     7    35 1
    40     7    36 1
    41     9    37 1
    42    10    38 1
    43    12    39 1
    44    14    40 1
    45    15    41 1
    46    15    42 1
    47    21    43 1
    48    24    44 1
    49    24    45 1
    50    27    46 1
    51    28    47 1
@<TRIPOS>SUBSTRUCTURE
     1 7C6         1 TEMP              0 ****  ****    0 ROOT
