@<TRIPOS>MOLECULE
7CA
   69    72     1     0     0
SMALL
bcc


@<TRIPOS>ATOM
      1 C1         -1.0890   -1.1720    0.2860 c3        1 7CA      0.111700
      2 O1          0.2320   -0.6470    0.3680 os        1 7CA     -0.322900
      3 C2          0.7570   -0.5070    1.6350 ca        1 7CA      0.148100
      4 C3          2.0600    0.0260    1.6810 ca        1 7CA     -0.192500
      5 C4          2.6800    0.2070    2.9090 ca        1 7CA     -0.051500
      6 C5          0.0870   -0.8560    2.8150 ca        1 7CA     -0.192500
      7 C6          0.7220   -0.6700    4.0400 ca        1 7CA     -0.051500
      8 C7          2.0160   -0.1340    4.0990 ca        1 7CA     -0.106800
      9 C8          2.6700    0.0610    5.3900 cc        1 7CA      0.183900
     10 O2          2.2920   -0.9390    6.2800 os        1 7CA     -0.212200
     11 C9          3.5520    1.0380    5.7410 cd        1 7CA     -0.083100
     12 C10         4.1660    1.1120    7.0800 c         1 7CA      0.595900
     13 C11         3.7470    0.0420    7.9820 ca        1 7CA     -0.278600
     14 C12         2.8280   -0.9330    7.5520 ca        1 7CA      0.212100
     15 O3          4.9550    2.0170    7.3900 o         1 7CA     -0.550100
     16 C13         4.2400   -0.0610    9.3050 ca        1 7CA      0.247100
     17 C14         3.8280   -1.0940   10.1520 ca        1 7CA     -0.347000
     18 C15         2.9080   -2.0430    9.6800 ca        1 7CA      0.218100
     19 C16         2.3840   -1.9890    8.3760 ca        1 7CA     -0.167300
     20 O4          5.1290    0.8940    9.7110 oh        1 7CA     -0.451100
     21 O10         2.4800   -3.0750   10.4770 oh        1 7CA     -0.483100
     22 C17         1.4200   -3.0050    7.8780 c3        1 7CA     -0.016100
     23 C18         0.0040   -2.4600    7.8290 c3        1 7CA     -0.072400
     24 C19        -0.9780   -3.4780    7.2660 c3        1 7CA     -0.068700
     25 C20        -1.3430   -4.5230    8.3000 c3        1 7CA     -0.090100
     26 C21        -2.2250   -2.7760    6.7690 c3        1 7CA     -0.090100
     27 O5          3.9780    1.9430    4.7840 os        1 7CA     -0.348900
     28 C22         3.8460    3.3250    5.1500 c3        1 7CA      0.308900
     29 O6          2.7970    3.8040    4.3530 os        1 7CA     -0.412600
     30 C23         5.2250    3.9810    4.9320 c3        1 7CA      0.091100
     31 O7          5.2580    5.2500    5.5650 oh        1 7CA     -0.604800
     32 C24         5.5210    4.2110    3.4470 c3        1 7CA      0.113100
     33 O8          6.6530    5.0340    3.2540 oh        1 7CA     -0.599800
     34 C25         4.3000    4.8210    2.7400 c3        1 7CA      0.084100
     35 O9          4.5260    4.9120    1.3430 oh        1 7CA     -0.597800
     36 C26         3.0760    3.9160    2.9500 c3        1 7CA      0.150100
     37 C27         1.8310    4.5080    2.3210 c3        1 7CA     -0.088100
     38 H11        -1.1280   -2.2060    0.7070 h1        1 7CA      0.046700
     39 H12        -1.2940   -1.1850   -0.8140 h1        1 7CA      0.046700
     40 H13        -1.8120   -0.5060    0.8150 h1        1 7CA      0.046700
     41 H3          2.5680    0.2930    0.7430 ha        1 7CA      0.149000
     42 H4          3.7000    0.6250    2.9530 ha        1 7CA      0.153000
     43 H5         -0.9290   -1.2730    2.7880 ha        1 7CA      0.149000
     44 H6          0.2030   -0.9500    4.9720 ha        1 7CA      0.153000
     45 H14         4.2200   -1.1630   11.1760 ha        1 7CA      0.144000
     46 HO4         5.3890    0.6990   10.6260 ho        1 7CA      0.423000
     47 HO10        2.9290   -3.0040   11.3330 ho        1 7CA      0.427000
     48 H171        1.4530   -3.9120    8.5390 hc        1 7CA      0.060700
     49 H172        1.7300   -3.3240    6.8460 hc        1 7CA      0.060700
     50 H181       -0.0040   -1.5400    7.1850 hc        1 7CA      0.044200
     51 H182       -0.3200   -2.1540    8.8580 hc        1 7CA      0.044200
     52 H19        -0.4920   -3.9970    6.3910 hc        1 7CA      0.046700
     53 H201       -2.0370   -5.2770    7.8580 hc        1 7CA      0.033533
     54 H202       -1.8470   -4.0490    9.1760 hc        1 7CA      0.033533
     55 H203       -0.4280   -5.0510    8.6620 hc        1 7CA      0.033533
     56 H211       -1.9680   -2.0550    5.9550 hc        1 7CA      0.033533
     57 H212       -2.7150   -2.2120    7.5990 hc        1 7CA      0.033533
     58 H213       -2.9540   -3.5190    6.3670 hc        1 7CA      0.033533
     59 H22         3.4940    3.4710    6.2100 h2        1 7CA      0.101700
     60 H23         6.0070    3.3040    5.3800 h1        1 7CA      0.085700
     61 HO7         5.2820    5.0850    6.5160 ho        1 7CA      0.422000
     62 H24         5.7920    3.2280    2.9660 h1        1 7CA      0.095700
     63 HO8         6.5400    5.8190    3.8080 ho        1 7CA      0.421000
     64 H25         4.0980    5.8470    3.1560 h1        1 7CA      0.060700
     65 HO9         5.4210    5.2640    1.2350 ho        1 7CA      0.418000
     66 H26         3.2860    2.8900    2.5370 h1        1 7CA      0.060700
     67 H271        0.9730    3.8040    2.4350 hc        1 7CA      0.051033
     68 H272        1.5680    5.4740    2.8130 hc        1 7CA      0.051033
     69 H273        2.0310    4.6870    1.2370 hc        1 7CA      0.051033
@<TRIPOS>BOND
     1    1    2 1
     2    1   38 1
     3    1   39 1
     4    1   40 1
     5    2    3 1
     6    3    4 ar
     7    3    6 ar
     8    4    5 ar
     9    4   41 1
    10    5    8 ar
    11    5   42 1
    12    6    7 ar
    13    6   43 1
    14    7    8 ar
    15    7   44 1
    16    8    9 1
    17    9   10 1
    18    9   11 2
    19   10   14 1
    20   11   12 1
    21   11   27 1
    22   12   13 1
    23   12   15 2
    24   13   14 ar
    25   13   16 ar
    26   14   19 ar
    27   16   17 ar
    28   16   20 1
    29   17   18 ar
    30   17   45 1
    31   18   19 ar
    32   18   21 1
    33   19   22 1
    34   20   46 1
    35   21   47 1
    36   22   23 1
    37   22   48 1
    38   22   49 1
    39   23   24 1
    40   23   50 1
    41   23   51 1
    42   24   25 1
    43   24   26 1
    44   24   52 1
    45   25   53 1
    46   25   54 1
    47   25   55 1
    48   26   56 1
    49   26   57 1
    50   26   58 1
    51   27   28 1
    52   28   29 1
    53   28   30 1
    54   28   59 1
    55   29   36 1
    56   30   31 1
    57   30   32 1
    58   30   60 1
    59   31   61 1
    60   32   33 1
    61   32   34 1
    62   32   62 1
    63   33   63 1
    64   34   35 1
    65   34   36 1
    66   34   64 1
    67   35   65 1
    68   36   37 1
    69   36   66 1
    70   37   67 1
    71   37   68 1
    72   37   69 1
@<TRIPOS>SUBSTRUCTURE
     1 7CA         1 TEMP              0 ****  ****    0 ROOT
