@<TRIPOS>MOLECULE
7CB
   23    24     1     0     0
SMALL
bcc


@<TRIPOS>ATOM
      1 O1           0.0000     0.0000     0.0000 o          1 7CB      -0.495800
      2 S            1.4220     0.0000     0.0000 sy         1 7CB       0.947200
      3 O            2.1980     0.0000     1.1890 o          1 7CB      -0.495800
      4 N1           1.8890    -1.3340    -0.8640 nz         1 7CB      -0.152500
      5 C7           1.9190     1.4180    -0.9210 ca         1 7CB      -0.240500
      6 C8           0.9840     2.2680    -1.4290 ca         1 7CB       0.107000
      7 C            1.3610     3.3980    -2.1540 ca         1 7CB      -0.153000
      8 C6           3.2800     1.6830    -1.1290 ca         1 7CB       0.067000
      9 C2           3.6640     2.8300    -1.8720 ca         1 7CB      -0.205300
     10 C1           2.6720     3.6860    -2.3770 ca         1 7CB       0.066000
     11 C5           4.2930     0.8480    -0.6250 ca         1 7CB      -0.315300
     12 C4           5.5920     1.1750    -0.8710 ca         1 7CB       0.494200
     13 N            5.9230     2.2520    -1.5680 nb         1 7CB      -0.570000
     14 C3           5.0320     3.0760    -2.0690 ca         1 7CB       0.493200
     15 H1           1.0880    -1.8990    -1.0640 hn         1 7CB       0.320133
     16 H2           2.5470    -1.8640    -0.3290 hn         1 7CB       0.320133
     17 H3          -0.0670     2.0640    -1.2670 ha         1 7CB       0.133000
     18 H4           0.5960     4.0570    -2.5470 ha         1 7CB       0.137000
     19 H5           2.9490     4.5680    -2.9420 ha         1 7CB       0.126000
     20 H6           4.0450    -0.0380    -0.0530 ha         1 7CB       0.107000
     21 H7           6.3770     0.5360    -0.4850 h4         1 7CB      -0.007900
     22 H8           5.3520     3.9440    -2.6320 h4         1 7CB       0.000100
     23 H13          2.3070    -1.0430    -1.7260 hn         1 7CB       0.320133
@<TRIPOS>BOND
     1     1     2 2   
     2     2     3 2   
     3     2     4 1   
     4     2     5 1   
     5     4    15 1   
     6     4    16 1   
     7     4    23 1   
     8     5     6 ar  
     9     5     8 ar  
    10     6     7 ar  
    11     6    17 1   
    12     7    10 ar  
    13     7    18 1   
    14     8     9 ar  
    15     8    11 ar  
    16     9    10 ar  
    17     9    14 ar  
    18    10    19 1   
    19    11    12 ar  
    20    11    20 1   
    21    12    13 ar  
    22    12    21 1   
    23    13    14 ar  
    24    14    22 1   
@<TRIPOS>SUBSTRUCTURE
     1 7CB         1 TEMP              0 ****  ****    0 ROOT
