@<TRIPOS>MOLECULE
molecule
   23    24     1     0     0
SMALL
bcc


@<TRIPOS>ATOM
      1 O1           0.0000     0.0000     0.0000 o          1 7CB      -0.520800
      2 S            1.4220     0.0000     0.0000 sy         1 7CB       1.242200
      3 O            2.1980     0.0000     1.1890 o          1 7CB      -0.520800
      4 N1           1.8890    -1.3340    -0.8640 nz         1 7CB      -0.813500
      5 C7           1.9190     1.4180    -0.9210 ca         1 7CB      -0.360500
      6 C8           0.9840     2.2680    -1.4290 ca         1 7CB       0.062000
      7 C            1.3610     3.3980    -2.1540 ca         1 7CB      -0.170000
      8 C6           3.2800     1.6830    -1.1290 ca         1 7CB       0.061000
      9 C2           3.6640     2.8300    -1.8720 ca         1 7CB      -0.201300
     10 C1           2.6720     3.6860    -2.3770 ca         1 7CB       0.021000
     11 C5           4.2930     0.8480    -0.6250 ca         1 7CB      -0.336300
     12 C4           5.5920     1.1750    -0.8710 ca         1 7CB       0.501200
     13 N            5.9230     2.2520    -1.5680 nb         1 7CB      -0.679000
     14 C3           5.0320     3.0760    -2.0690 ca         1 7CB       0.505200
     15 H1           1.0880    -1.8990    -1.0640 hn         1 7CB       0.495133
     16 H2           2.5470    -1.8640    -0.3290 hn         1 7CB       0.495133
     17 H3          -0.0670     2.0640    -1.2670 ha         1 7CB       0.169000
     18 H4           0.5960     4.0570    -2.5470 ha         1 7CB       0.170000
     19 H5           2.9490     4.5680    -2.9420 ha         1 7CB       0.167000
     20 H6           4.0450    -0.0380    -0.0530 ha         1 7CB       0.117000
     21 H7           6.3770     0.5360    -0.4850 h4         1 7CB       0.045100
     22 H8           5.3520     3.9440    -2.6320 h4         1 7CB       0.053100
     23 H13          2.3070    -1.0430    -1.7260 hn         1 7CB       0.495133
@<TRIPOS>BOND
     1     7    10 ar
     2     7     6 ar
     3    10     9 ar
     4     6     5 ar
     5     9    14 ar
     6     9     8 ar
     7    14    13 ar
     8     5     8 ar
     9     5     2 1
    10     3     2 2
    11     8    11 ar
    12     2     4 1
    13     2     1 2
    14    13    12 ar
    15    11    12 ar
    16     4    15 1
    17     4    16 1
    18     6    17 1
    19     7    18 1
    20    10    19 1
    21    11    20 1
    22    12    21 1
    23    14    22 1
    24    23     4 1
@<TRIPOS>SUBSTRUCTURE
     1 7CB         1 TEMP              0 ****  ****    0 ROOT
