@<TRIPOS>MOLECULE
7CD
   24    25     1     0     0
SMALL
bcc


@<TRIPOS>ATOM
      1 C11          0.0000     0.0000     0.0000 ca         1 7CD      -0.003000
      2 C10          1.3610     0.0000     0.0000 ca         1 7CD      -0.121000
      3 C12         -0.6950     0.0040     1.2210 ca         1 7CD      -0.037000
      4 C14         -0.6600     0.0090     3.6570 ca         1 7CD      -0.217000
      5 C13          0.0350     0.0040     2.4360 ca         1 7CD       0.032000
      6 C15         -2.0210     0.0140     3.6580 ca         1 7CD      -0.052000
      7 N06          2.2830    -1.3640     4.2220 nz         1 7CD       0.067400
      8 C08          1.4400    -0.0000     2.3960 ca         1 7CD      -0.220300
      9 C09          2.0780     0.0000     1.1940 ca         1 7CD      -0.016000
     10 C16         -2.7390     0.0140     2.4630 ca         1 7CD      -0.118000
     11 C17         -2.1000     0.0100     1.2620 ca         1 7CD      -0.044000
     12 H1          -0.5440     0.0000    -0.9370 ha         1 7CD       0.125000
     13 H2           1.8950     0.0000    -0.9430 ha         1 7CD       0.127000
     14 H3          -0.5120     0.2360     4.7060 ha         1 7CD       0.131000
     15 H4          -2.6570     0.0140     4.5350 ha         1 7CD       0.116000
     16 H7           3.2300    -1.6030     4.4400 hn         1 7CD       0.224133
     17 H8           3.2410     0.3450     3.4770 hx         1 7CD       0.081700
     18 H9           1.7610     0.6580     4.3940 hx         1 7CD       0.081700
     19 H10          3.1610     0.0000     1.1660 ha         1 7CD       0.105000
     20 H11         -3.8210     0.0260     2.5110 ha         1 7CD       0.122000
     21 H12         -2.8010     0.0190     0.4360 ha         1 7CD       0.126000
     22 H5           1.7290    -1.4020     5.0550 hn         1 7CD       0.224133
     23 C07          2.2330    -0.0010     3.6760 c3         1 7CD       0.041100
     24 H063         1.9210    -2.0140     3.5520 hn         1 7CD       0.224133
@<TRIPOS>BOND
     1     1     2 ar  
     2     1     3 ar  
     3     1    12 1   
     4     2     9 ar  
     5     2    13 1   
     6     3     5 ar  
     7     3    11 ar  
     8     4     5 ar  
     9     4     6 ar  
    10     4    14 1   
    11     5     8 ar  
    12     6    10 ar  
    13     6    15 1   
    14     7    16 1   
    15     7    22 1   
    16     7    23 1   
    17     7    24 1   
    18     8     9 ar  
    19     8    23 1   
    20     9    19 1   
    21    10    11 ar  
    22    10    20 1   
    23    11    21 1   
    24    17    23 1   
    25    18    23 1   
@<TRIPOS>SUBSTRUCTURE
     1 7CD         1 TEMP              0 ****  ****    0 ROOT
