@<TRIPOS>MOLECULE
molecule
   24    25     1     0     0
SMALL
bcc


@<TRIPOS>ATOM
      1 C11          0.0000     0.0000     0.0000 ca         1 7CD      -0.042000
      2 C10          1.3610     0.0000     0.0000 ca         1 7CD      -0.146000
      3 C12         -0.6950     0.0040     1.2210 ca         1 7CD      -0.035000
      4 C14         -0.6600     0.0090     3.6570 ca         1 7CD      -0.222000
      5 C13          0.0350     0.0040     2.4360 ca         1 7CD       0.017000
      6 C15         -2.0210     0.0140     3.6580 ca         1 7CD      -0.090000
      7 N06          2.2830    -1.3640     4.2220 nz         1 7CD      -0.811600
      8 C08          1.4400    -0.0000     2.3960 ca         1 7CD      -0.204300
      9 C09          2.0780     0.0000     1.1940 ca         1 7CD      -0.054000
     10 C16         -2.7390     0.0140     2.4630 ca         1 7CD      -0.141000
     11 C17         -2.1000     0.0100     1.2620 ca         1 7CD      -0.084000
     12 H1          -0.5440     0.0000    -0.9370 ha         1 7CD       0.161000
     13 H2           1.8950     0.0000    -0.9430 ha         1 7CD       0.159000
     14 H3          -0.5120     0.2360     4.7060 ha         1 7CD       0.148000
     15 H4          -2.6570     0.0140     4.5350 ha         1 7CD       0.147000
     16 H7           3.2300    -1.6030     4.4400 hn         1 7CD       0.454133
     17 H8           3.2410     0.3450     3.4770 hx         1 7CD       0.109700
     18 H9           1.7610     0.6580     4.3940 hx         1 7CD       0.109700
     19 H10          3.1610     0.0000     1.1660 ha         1 7CD       0.136000
     20 H11         -3.8210     0.0260     2.5110 ha         1 7CD       0.152000
     21 H12         -2.8010     0.0190     0.4360 ha         1 7CD       0.159000
     22 H5           1.7290    -1.4020     5.0550 hn         1 7CD       0.454133
     23 C07          2.2330    -0.0010     3.6760 c3         1 7CD       0.168100
     24 H063         1.9210    -2.0140     3.5520 hn         1 7CD       0.454133
@<TRIPOS>BOND
     1     7    23 1
     2    23     8 1
     3     4     6 ar
     4     4     5 ar
     5     6    10 ar
     6     8     5 ar
     7     8     9 ar
     8     5     3 ar
     9    10    11 ar
    10     9     2 ar
    11     3    11 ar
    12     3     1 ar
    13     2     1 ar
    14     1    12 1
    15     2    13 1
    16     4    14 1
    17     6    15 1
    18     7    16 1
    19    23    17 1
    20    23    18 1
    21     9    19 1
    22    10    20 1
    23    11    21 1
    24     7    22 1
    25    24     7 1
@<TRIPOS>SUBSTRUCTURE
     1 7CD         1 TEMP              0 ****  ****    0 ROOT
