@<TRIPOS>MOLECULE
7CE
   37    40     1     0     0
SMALL
bcc


@<TRIPOS>ATOM
      1 C16         0.5710   -0.4150   -0.4380 c3        1 7CE      0.119700
      2 O1          1.9220   -0.1460   -0.0870 os        1 7CE     -0.346900
      3 C11         2.1910   -0.0080    1.2660 ca        1 7CE      0.087100
      4 C12         1.2270   -0.1620    2.2640 ca        1 7CE     -0.189000
      5 C13         1.5840   -0.0070    3.6030 ca        1 7CE     -0.109000
      6 C14         2.8950    0.3090    3.9430 ca        1 7CE     -0.151000
      7 C15         3.8640    0.4760    2.9550 ca        1 7CE     -0.081000
      8 C10         3.5410    0.3200    1.5950 ca        1 7CE      0.103600
      9 N3          4.5010    0.5690    0.5840 nh        1 7CE     -0.695300
     10 C2          5.6820   -0.2030    0.4850 ca        1 7CE      0.653200
     11 N           6.0820   -0.9910    1.5540 nb        1 7CE     -0.721000
     12 C1          7.2380   -1.6420    1.4760 ca        1 7CE      0.490200
     13 C3          6.4440   -0.0730   -0.7060 ca        1 7CE     -0.325300
     14 C4          7.6600   -0.7680   -0.7600 ca        1 7CE      0.029800
     15 N1          8.6250   -0.8500   -1.7540 na        1 7CE     -0.176400
     16 C5          9.6590   -1.6950   -1.2920 cc        1 7CE     -0.131900
     17 C6          9.3540   -2.1590   -0.0060 cd        1 7CE     -0.110200
     18 C           8.0880   -1.5850    0.3570 ca        1 7CE     -0.265100
     19 C7         10.8200   -2.0000   -2.0630 cc        1 7CE      0.233200
     20 C9         11.9490   -2.7880   -1.8390 cd        1 7CE      0.246900
     21 N2         12.7860   -2.7210   -2.9610 nd        1 7CE     -0.661000
     22 C8         12.1770   -1.9190   -3.8260 cc        1 7CE      0.484300
     23 O          10.9540   -1.4320   -3.3440 os        1 7CE     -0.396800
     24 H161        0.2420   -1.3950   -0.0130 h1        1 7CE      0.045033
     25 H162        0.5980   -0.4610   -1.5560 h1        1 7CE      0.045033
     26 H163       -0.1000    0.4080   -0.0920 h1        1 7CE      0.045033
     27 H12         0.1880   -0.4110    2.0070 ha        1 7CE      0.136000
     28 H13         0.8230   -0.1380    4.3860 ha        1 7CE      0.132000
     29 H14         3.1760    0.4310    4.9990 ha        1 7CE      0.135000
     30 H15         4.8950    0.7300    3.2490 ha        1 7CE      0.154000
     31 H3          4.0820    0.7340   -0.3120 hn        1 7CE      0.423800
     32 HA          6.1050    0.5470   -1.5440 ha        1 7CE      0.147000
     33 H1          7.5040   -2.2540    2.3580 h4        1 7CE      0.025100
     34 HB          8.6190   -0.3900   -2.6260 hn        1 7CE      0.312700
     35 H6          9.9590   -2.8260    0.6010 ha        1 7CE      0.162000
     36 H9         12.2130   -3.3860   -0.9670 h4        1 7CE      0.058100
     37 H8         12.4610   -1.5850   -4.8250 h5        1 7CE      0.090100
@<TRIPOS>BOND
     1    1    2 1   
     2    1   24 1   
     3    1   25 1   
     4    1   26 1   
     5    2    3 1   
     6    3    4 ar  
     7    3    8 ar  
     8    4    5 ar  
     9    4   27 1   
    10    5    6 ar  
    11    5   28 1   
    12    6    7 ar  
    13    6   29 1   
    14    7    8 ar  
    15    7   30 1   
    16    8    9 1   
    17    9   10 1   
    18    9   31 1   
    19   10   11 ar  
    20   10   13 ar  
    21   11   12 ar  
    22   12   18 ar  
    23   12   33 1   
    24   13   14 ar  
    25   13   32 1   
    26   14   15 1   
    27   14   18 ar  
    28   15   16 1   
    29   15   34 1   
    30   16   17 2   
    31   16   19 1   
    32   17   18 1   
    33   17   35 1   
    34   19   20 2   
    35   19   23 1   
    36   20   21 1   
    37   20   36 1   
    38   21   22 2   
    39   22   23 1   
    40   22   37 1   
@<TRIPOS>SUBSTRUCTURE
     1 7CE         1 TEMP              0 ****  ****    0 ROOT
