@<TRIPOS>MOLECULE
7CG
   38    40     1     0     0
SMALL
bcc


@<TRIPOS>ATOM
      1 C10          0.0000     0.0000     0.0000 ca         1 7CG       0.034000
      2 C13          2.8300     3.6860    -0.8020 ca         1 7CG      -0.188000
      3 C17          4.0460     7.3030     1.3150 c3         1 7CG      -0.030400
      4 C21          1.0260     5.0470    -1.6230 ca         1 7CG      -0.165000
      5 C22          0.6050     4.0050    -2.4280 ca         1 7CG      -0.046000
      6 O01          3.2380    -1.0290    -1.4270 o          1 7CG      -0.575300
      7 S02          2.2630    -0.0000    -1.5260 sy         1 7CG       1.034200
      8 C03          1.3820     0.0000     0.0000 ca         1 7CG      -0.133500
      9 C04          2.0740     0.0000     1.1990 ca         1 7CG       0.120100
     10 Br1          3.9650    -0.0000     1.1990 br         1 7CG      -0.093100
     11 C06          1.3820    -0.0010     2.3960 ca         1 7CG      -0.108000
     12 C07         -0.0000    -0.0010     2.3960 ca         1 7CG      -0.025000
     13 C08         -0.6920    -0.0010     1.1990 ca         1 7CG      -0.000900
     14 Br2         -2.5820     0.0010     1.1990 br         1 7CG      -0.101100
     15 N11          3.0970     1.4290    -1.6100 nu         1 7CG      -0.392500
     16 C12          2.4050     2.6420    -1.6120 ca         1 7CG       0.076600
     17 C14          2.1400     4.8900    -0.8080 ca         1 7CG      -0.042400
     18 N15          2.5650     5.9440     0.0080 n          1 7CG       0.008000
     19 C16          3.6510     5.8450     0.9900 c3         1 7CG       0.028000
     20 C18          2.7400     8.0640     0.9930 c3         1 7CG      -0.114400
     21 C19          2.0320     7.1780    -0.0090 c          1 7CG       0.622500
     22 O20          1.1160     7.5300    -0.7220 o          1 7CG      -0.654500
     23 C23          1.2900     2.8050    -2.4250 ca         1 7CG      -0.177000
     24 O24          1.2830     0.0460    -2.5550 o          1 7CG      -0.575300
     25 H101        -0.5420     0.0000    -0.9380 ha         1 7CG       0.146000
     26 H131         3.6990     3.5620    -0.1680 ha         1 7CG       0.116000
     27 H171         4.8530     7.6350     0.6730 hc         1 7CG       0.028700
     28 H172         4.3050     7.4080     2.3610 hc         1 7CG       0.028700
     29 H211         0.4860     5.9860    -1.6270 ha         1 7CG       0.170000
     30 H221        -0.2640     4.1290    -3.0630 ha         1 7CG       0.107000
     31 H061         1.9240    -0.0010     3.3350 ha         1 7CG       0.124000
     32 H071        -0.5420    -0.0010     3.3350 ha         1 7CG       0.120000
     33 H161         3.3010     5.3450     1.8840 h1         1 7CG       0.024700
     34 H162         4.4940     5.3160     0.5620 h1         1 7CG       0.024700
     35 H182         2.1390     8.1780     1.8870 hc         1 7CG       0.045700
     36 H181         2.9630     9.0280     0.5520 hc         1 7CG       0.045700
     37 H231         0.9580     1.9910    -3.0580 ha         1 7CG       0.164000
     38 H111         4.0940     1.4210    -1.6940 hn         1 7CG       0.350800
@<TRIPOS>BOND
     1     1     8 ar  
     2     1    13 ar  
     3     1    25 1   
     4     2    16 ar  
     5     2    17 ar  
     6     2    26 1   
     7     3    19 1   
     8     3    20 1   
     9     3    27 1   
    10     3    28 1   
    11     4     5 ar  
    12     4    17 ar  
    13     4    29 1   
    14     5    23 ar  
    15     5    30 1   
    16     6     7 2   
    17     7     8 1   
    18     7    15 1   
    19     7    24 2   
    20     8     9 ar  
    21     9    10 1   
    22     9    11 ar  
    23    11    12 ar  
    24    11    31 1   
    25    12    13 ar  
    26    12    32 1   
    27    13    14 1   
    28    15    16 1   
    29    15    38 1   
    30    16    23 ar  
    31    17    18 1   
    32    18    19 1   
    33    18    21 1   
    34    19    33 1   
    35    19    34 1   
    36    20    21 1   
    37    20    35 1   
    38    20    36 1   
    39    21    22 2   
    40    23    37 1   
@<TRIPOS>SUBSTRUCTURE
     1 7CG         1 TEMP              0 ****  ****    0 ROOT
