@<TRIPOS>MOLECULE
7CH
   35    38     1     0     0
SMALL
bcc


@<TRIPOS>ATOM
      1 O2P          0.0000     0.0000     0.0000 o          1 7CH      -0.601300
      2 P            1.4790     0.0000     0.0000 p5         1 7CH       1.211500
      3 O1P          2.0280     1.2940    -0.7860 oh         1 7CH      -0.655400
      4 O3'          2.0370     0.0000     1.5330 os         1 7CH      -0.413200
      5 C3'          3.3660    -0.4910     1.7310 c3         1 7CH       0.172100
      6 C4'          3.3810    -1.9390     1.1690 c3         1 7CH       0.067100
      7 C5'          3.3340    -1.8810    -0.3460 c3         1 7CH       0.282400
      8 O5'          2.0340    -1.3520    -0.7060 os         1 7CH      -0.443200
      9 C2'          3.7490    -0.7250     3.1980 c3         1 7CH       0.146100
     10 O2'          2.5800    -0.8620     4.0090 oh         1 7CH      -0.547800
     11 C1'          4.5450    -2.0540     3.1520 c3         1 7CH       0.135800
     12 O4'          4.5570    -2.4970     1.7490 os         1 7CH      -0.386600
     13 N9           5.9180    -1.8300     3.6110 na         1 7CH       0.293900
     14 C4           6.3200    -1.8450     4.9180 ca         1 7CH       0.316800
     15 C5           7.7030    -1.5880     4.9290 ca         1 7CH      -0.416400
     16 C7           8.0990    -1.4180     3.5330 cc         1 7CH      -0.125200
     17 C8           6.9900    -1.5800     2.7930 cd         1 7CH      -0.256100
     18 N3           5.6990    -2.0400     6.0810 nb         1 7CH      -0.696000
     19 C2           6.3640    -1.9950     7.2130 ca         1 7CH       0.696900
     20 N1           7.6630    -1.7580     7.2700 nb         1 7CH      -0.749000
     21 C6           8.3710    -1.5500     6.1630 ca         1 7CH       0.590200
     22 N6           9.7290    -1.3020     6.2270 nv         1 7CH      -0.495500
     23 H1           1.3000     1.7870    -1.1260 ho         1 7CH       0.459000
     24 H2           4.0970     0.1300     1.2280 h1         1 7CH       0.023700
     25 H3           2.5120    -2.4740     1.5330 h1         1 7CH       0.057700
     26 H4           3.4550    -2.8760    -0.7570 h1         1 7CH       0.010700
     27 H5           4.1140    -1.2250    -0.7140 h1         1 7CH       0.010700
     28 H6           4.3780     0.0800     3.5580 h1         1 7CH       0.023700
     29 H7           2.5260    -0.1340     4.6060 ho         1 7CH       0.402000
     30 H8           4.0570    -2.7980     3.7700 h2         1 7CH       0.073700
     31 H9           9.0960    -1.2100     3.1650 ha         1 7CH       0.125000
     32 H10          6.9480    -1.5210     1.7120 h4         1 7CH       0.151000
     33 H11          5.8260    -2.1590     8.1390 h5         1 7CH      -0.005900
     34 H12         10.1920    -1.2780     7.1140 hn         1 7CH       0.271800
     35 H13         10.2490    -1.1440     5.3870 hn         1 7CH       0.271800
@<TRIPOS>BOND
     1     1     2 2   
     2     2     3 1   
     3     2     4 1   
     4     2     8 1   
     5     3    23 1   
     6     4     5 1   
     7     5     6 1   
     8     5     9 1   
     9     5    24 1   
    10     6     7 1   
    11     6    12 1   
    12     6    25 1   
    13     7     8 1   
    14     7    26 1   
    15     7    27 1   
    16     9    10 1   
    17     9    11 1   
    18     9    28 1   
    19    10    29 1   
    20    11    12 1   
    21    11    13 1   
    22    11    30 1   
    23    13    14 1   
    24    13    17 1   
    25    14    15 ar  
    26    14    18 ar  
    27    15    16 1   
    28    15    21 ar  
    29    16    17 2   
    30    16    31 1   
    31    17    32 1   
    32    18    19 ar  
    33    19    20 ar  
    34    19    33 1   
    35    20    21 ar  
    36    21    22 1   
    37    22    34 1   
    38    22    35 1   
@<TRIPOS>SUBSTRUCTURE
     1 7CH         1 TEMP              0 ****  ****    0 ROOT
