@<TRIPOS>MOLECULE
7CJ
   38    40     1     0     0
SMALL
bcc


@<TRIPOS>ATOM
      1 C10          0.0000     0.0000     0.0000 c3         1 7CJ      -0.114400
      2 C13          1.8590    -1.1670     4.1950 ca         1 7CJ      -0.172000
      3 C15          0.6700    -2.1130     6.0460 ca         1 7CJ      -0.181000
      4 C17         -3.5890     0.1900     7.2050 ca         1 7CJ      -0.003000
      5 C20         -1.4570     1.8760     7.7150 ca         1 7CJ       0.074900
      6 C22         -1.2680     0.5050     7.7040 ca         1 7CJ      -0.025000
      7 S02         -2.0970    -2.0820     7.4380 sy         1 7CJ       1.041200
      8 C04         -0.5120    -2.0620     5.3180 ca         1 7CJ       0.081600
      9 C05         -0.5060    -1.5610     4.0230 ca         1 7CJ      -0.184000
     10 C06          0.6810    -1.1130     3.4610 ca         1 7CJ      -0.042400
     11 N07          0.6900    -0.6070     2.1570 n          1 7CJ       0.010000
     12 C08          1.8610     0.0000     1.5120 c3         1 7CJ       0.028000
     13 C09          1.5460     0.0000     0.0000 c3         1 7CJ      -0.030400
     14 C11         -0.3710    -0.6160     1.3320 c          1 7CJ       0.623500
     15 O12         -1.4660    -1.0530     1.6150 o          1 7CJ      -0.661500
     16 C14          1.8500    -1.6660     5.4830 ca         1 7CJ      -0.049000
     17 C16         -2.3350    -0.3370     7.4500 ca         1 7CJ      -0.135500
     18 C18         -3.7780     1.5610     7.2140 ca         1 7CJ      -0.106000
     19 C19         -2.7140     2.4040     7.4690 ca         1 7CJ      -0.078000
     20 O23         -0.9430    -2.3350     8.2280 o          1 7CJ      -0.585300
     21 H102        -0.3780    -0.6060    -0.8140 hc         1 7CJ       0.045700
     22 H101        -0.3780     1.0130    -0.0660 hc         1 7CJ       0.045700
     23 H131         2.7860    -0.8180     3.7560 ha         1 7CJ       0.110000
     24 H151         0.6670    -2.5040     7.0570 ha         1 7CJ       0.169000
     25 H171        -4.4250    -0.4700     7.0060 ha         1 7CJ       0.127000
     26 H221        -0.2860     0.0910     7.8960 ha         1 7CJ       0.140000
     27 H051        -1.4260    -1.5200     3.4530 ha         1 7CJ       0.173000
     28 H081         2.7460    -0.5940     1.7090 h1         1 7CJ       0.026700
     29 H082         1.9980     1.0150     1.8650 h1         1 7CJ       0.026700
     30 H091         1.9310    -0.8950    -0.4740 hc         1 7CJ       0.029200
     31 H092         1.9310     0.8950    -0.4740 hc         1 7CJ       0.029200
     32 H141         2.7710    -1.7070     6.0530 ha         1 7CJ       0.105000
     33 H181        -4.7620     1.9730     7.0220 ha         1 7CJ       0.113000
     34 H191        -2.8630     3.4770     7.4770 ha         1 7CJ       0.118000
     35 H031        -2.3050    -3.1250     5.3710 hn         1 7CJ       0.351800
     36 N03         -1.7050    -2.5130     5.8870 nu         1 7CJ      -0.391500
     37 F21         -0.4150     2.7000     7.9640 f          1 7CJ      -0.124900
     38 O01         -3.3660    -2.6630     7.7070 o          1 7CJ      -0.585300
@<TRIPOS>BOND
     1     1    13 1   
     2     1    14 1   
     3     1    21 1   
     4     1    22 1   
     5     2    10 ar  
     6     2    16 ar  
     7     2    23 1   
     8     3     8 ar  
     9     3    16 ar  
    10     3    24 1   
    11     4    17 ar  
    12     4    18 ar  
    13     4    25 1   
    14     5     6 ar  
    15     5    19 ar  
    16     5    37 1   
    17     6    17 ar  
    18     6    26 1   
    19     7    17 1   
    20     7    20 2   
    21     7    36 1   
    22     7    38 2   
    23     8     9 ar  
    24     8    36 1   
    25     9    10 ar  
    26     9    27 1   
    27    10    11 1   
    28    11    12 1   
    29    11    14 1   
    30    12    13 1   
    31    12    28 1   
    32    12    29 1   
    33    13    30 1   
    34    13    31 1   
    35    14    15 2   
    36    16    32 1   
    37    18    19 ar  
    38    18    33 1   
    39    19    34 1   
    40    35    36 1   
@<TRIPOS>SUBSTRUCTURE
     1 7CJ         1 TEMP              0 ****  ****    0 ROOT
