@<TRIPOS>MOLECULE
molecule
   38    40     1     0     0
SMALL
bcc


@<TRIPOS>ATOM
      1 C10          0.0000     0.0000     0.0000 c3         1 7CJ      -0.168400
      2 C13          1.8590    -1.1670     4.1950 ca         1 7CJ      -0.185000
      3 C15          0.6700    -2.1130     6.0460 ca         1 7CJ      -0.191000
      4 C17         -3.5890     0.1900     7.2050 ca         1 7CJ      -0.039000
      5 C20         -1.4570     1.8760     7.7150 ca         1 7CJ       0.110900
      6 C22         -1.2680     0.5050     7.7040 ca         1 7CJ      -0.063000
      7 S02         -2.0970    -2.0820     7.4380 sy         1 7CJ       1.426200
      8 C04         -0.5120    -2.0620     5.3180 ca         1 7CJ       0.156600
      9 C05         -0.5060    -1.5610     4.0230 ca         1 7CJ      -0.181000
     10 C06          0.6810    -1.1130     3.4610 ca         1 7CJ       0.090600
     11 N07          0.6900    -0.6070     2.1570 n          1 7CJ      -0.380000
     12 C08          1.8610     0.0000     1.5120 c3         1 7CJ       0.093000
     13 C09          1.5460     0.0000     0.0000 c3         1 7CJ      -0.098400
     14 C11         -0.3710    -0.6160     1.3320 c          1 7CJ       0.705500
     15 O12         -1.4660    -1.0530     1.6150 o          1 7CJ      -0.620500
     16 C14          1.8500    -1.6660     5.4830 ca         1 7CJ      -0.085000
     17 C16         -2.3350    -0.3370     7.4500 ca         1 7CJ      -0.287500
     18 C18         -3.7780     1.5610     7.2140 ca         1 7CJ      -0.126000
     19 C19         -2.7140     2.4040     7.4690 ca         1 7CJ      -0.113000
     20 O23         -0.9430    -2.3350     8.2280 o          1 7CJ      -0.631300
     21 H102        -0.3780    -0.6060    -0.8140 hc         1 7CJ       0.081200
     22 H101        -0.3780     1.0130    -0.0660 hc         1 7CJ       0.081200
     23 H131         2.7860    -0.8180     3.7560 ha         1 7CJ       0.131000
     24 H151         0.6670    -2.5040     7.0570 ha         1 7CJ       0.181000
     25 H171        -4.4250    -0.4700     7.0060 ha         1 7CJ       0.155000
     26 H221        -0.2860     0.0910     7.8960 ha         1 7CJ       0.166000
     27 H051        -1.4260    -1.5200     3.4530 ha         1 7CJ       0.187000
     28 H081         2.7460    -0.5940     1.7090 h1         1 7CJ       0.056200
     29 H082         1.9980     1.0150     1.8650 h1         1 7CJ       0.056200
     30 H091         1.9310    -0.8950    -0.4740 hc         1 7CJ       0.062700
     31 H092         1.9310     0.8950    -0.4740 hc         1 7CJ       0.062700
     32 H141         2.7710    -1.7070     6.0530 ha         1 7CJ       0.139000
     33 H181        -4.7620     1.9730     7.0220 ha         1 7CJ       0.144000
     34 H191        -2.8630     3.4770     7.4770 ha         1 7CJ       0.148000
     35 H031        -2.3050    -3.1250     5.3710 hn         1 7CJ       0.469800
     36 N03         -1.7050    -2.5130     5.8870 nu         1 7CJ      -0.766500
     37 F21         -0.4150     2.7000     7.9640 f          1 7CJ      -0.137900
     38 O01         -3.3660    -2.6630     7.7070 o          1 7CJ      -0.631300
@<TRIPOS>BOND
     1     1    13 1   
     2     1    14 1   
     3     2    10 ar  
     4     2    16 ar  
     5     3     8 ar  
     6     3    16 ar  
     7     4    17 ar  
     8     4    18 ar  
     9     5     6 ar  
    10     5    19 ar  
    11     5    37 1   
    12     6    17 ar  
    13    38     7 2   
    14     7    36 1   
    15     7    17 1   
    16     7    20 2   
    17    36     8 1   
    18     8     9 ar  
    19     9    10 ar  
    20    10    11 1   
    21    11    12 1   
    22    11    14 1   
    23    12    13 1   
    24    14    15 2   
    25    18    19 ar  
    26     1    21 1   
    27     1    22 1   
    28     2    23 1   
    29     3    24 1   
    30     4    25 1   
    31     6    26 1   
    32    36    35 1   
    33     9    27 1   
    34    12    28 1   
    35    12    29 1   
    36    13    30 1   
    37    13    31 1   
    38    16    32 1   
    39    18    33 1   
    40    19    34 1   
@<TRIPOS>SUBSTRUCTURE
     1 7CJ         1 TEMP              0 ****  ****    0 ROOT
