@<TRIPOS>MOLECULE
7CL
   17    16     1     0     0
SMALL
bcc


@<TRIPOS>ATOM
      1 Cl1         0.0450    0.0010   -0.0310 cl        1 7CL     -0.200400
      2 C1          1.8010    0.0000    0.0200 c3        1 7CL      0.039000
      3 C2          2.3170    0.0000    1.4390 c3        1 7CL     -0.092400
      4 C3          3.8320   -0.0000    1.4490 c3        1 7CL     -0.080400
      5 C4          4.3680   -0.0010    2.8650 c3        1 7CL     -0.079400
      6 C5          5.8740   -0.0010    2.8840 c3        1 7CL     -0.093100
      7 H1          2.1340    0.9120   -0.5310 h1        1 7CL      0.063700
      8 H1A         2.1330   -0.9130   -0.5300 h1        1 7CL      0.063700
      9 H2          1.9360    0.9030    1.9840 hc        1 7CL      0.056700
     10 H2A         1.9350   -0.9030    1.9850 hc        1 7CL      0.056700
     11 H3          4.2130   -0.9040    0.9030 hc        1 7CL      0.041700
     12 H3A         4.2130    0.9020    0.9030 hc        1 7CL      0.041700
     13 H4          3.9830    0.9020    3.4100 hc        1 7CL      0.040700
     14 H4A         3.9830   -0.9030    3.4090 hc        1 7CL      0.040700
     15 H5          6.2760   -0.9050    2.3670 hc        1 7CL      0.034367
     16 H5A         6.2760    0.9050    2.3670 hc        1 7CL      0.034367
     17 H5B         6.2480   -0.0010    3.9360 hc        1 7CL      0.034367
@<TRIPOS>BOND
     1    1    2 1   
     2    2    3 1   
     3    2    7 1   
     4    2    8 1   
     5    3    4 1   
     6    3    9 1   
     7    3   10 1   
     8    4    5 1   
     9    4   11 1   
    10    4   12 1   
    11    5    6 1   
    12    5   13 1   
    13    5   14 1   
    14    6   15 1   
    15    6   16 1   
    16    6   17 1   
@<TRIPOS>SUBSTRUCTURE
     1 7CL         1 TEMP              0 ****  ****    0 ROOT
