@<TRIPOS>MOLECULE
molecule
   17    16     1     0     0
SMALL
bcc


@<TRIPOS>ATOM
      1 Cl1          0.0000     0.0000     0.0000 cl         1 7CL      -0.212400
      2 C1           1.8040     0.0000     0.0000 c3         1 7CL       0.052000
      3 C2           2.3140     0.0000     1.4420 c3         1 7CL      -0.094400
      4 C3           3.8440    -0.0000     1.4410 c3         1 7CL      -0.083400
      5 C4           4.3540    -0.0000     2.8840 c3         1 7CL      -0.082400
      6 C5           5.8840    -0.0010     2.8830 c3         1 7CL      -0.092100
      7 H1           2.1650     0.8850    -0.5110 h1         1 7CL       0.062700
      8 H1A          2.1650    -0.8850    -0.5110 h1         1 7CL       0.062700
      9 H2           1.9520    -0.8840     1.9530 hc         1 7CL       0.056200
     10 H2A          1.9530     0.8850     1.9520 hc         1 7CL       0.056200
     11 H3           4.2050     0.8840     0.9300 hc         1 7CL       0.042700
     12 H3A          4.2050    -0.8850     0.9300 hc         1 7CL       0.042700
     13 H4           3.9930     0.8840     3.3940 hc         1 7CL       0.042700
     14 H4A          3.9930    -0.8850     3.3950 hc         1 7CL       0.042700
     15 H5           6.2450     0.8840     2.3720 hc         1 7CL       0.034033
     16 H5A          6.2450    -0.8850     2.3720 hc         1 7CL       0.034033
     17 H5B          6.2460    -0.0010     3.9040 hc         1 7CL       0.034033
@<TRIPOS>BOND
     1     2     1 1
     2     3     2 1
     3     2     7 1
     4     2     8 1
     5     4     3 1
     6     3     9 1
     7     3    10 1
     8     5     4 1
     9     4    11 1
    10     4    12 1
    11     5     6 1
    12     5    13 1
    13     5    14 1
    14     6    15 1
    15     6    16 1
    16     6    17 1
@<TRIPOS>SUBSTRUCTURE
     1 7CL         1 TEMP              0 ****  ****    0 ROOT
