@<TRIPOS>MOLECULE
molecule
   38    40     1     0     0
SMALL
bcc


@<TRIPOS>ATOM
      1 C13          0.0000     0.0000     0.0000 ca         1 7CM      -0.181000
      2 C17         -4.3290    -0.3580     0.4260 c3         1 7CM      -0.098400
      3 C21          0.0070    -0.0010     2.4040 ca         1 7CM      -0.155000
      4 C22          1.3890    -0.0000     2.4010 ca         1 7CM      -0.099000
      5 O01          3.4190     1.0710    -2.9890 o          1 7CM      -0.626800
      6 S02          2.8230     1.3860    -1.7380 sy         1 7CM       1.425200
      7 C03          1.5510     2.5580    -2.0730 ca         1 7CM      -0.323500
      8 C04          1.1250     3.4190    -1.0790 ca         1 7CM       0.004000
      9 C05          0.1280     4.3390    -1.3410 ca         1 7CM      -0.185000
     10 C06          0.9840     2.6210    -3.3330 ca         1 7CM       0.001000
     11 C07         -0.0140     3.5400    -3.5970 ca         1 7CM      -0.044600
     12 Cl1         -0.7260     3.6200    -5.1780 cl         1 7CM      -0.076400
     13 C09         -0.4460     4.3990    -2.5990 ca         1 7CM       0.191900
     14 F10         -1.4210     5.2980    -2.8550 f          1 7CM      -0.119900
     15 C12          1.3870     0.0000     0.0000 ca         1 7CM       0.133600
     16 C14         -0.6920    -0.0000     1.2030 ca         1 7CM       0.080600
     17 N15         -2.0910     0.0000     1.2080 n          1 7CM      -0.381000
     18 C16         -2.9220     0.1220     0.0050 c3         1 7CM       0.091000
     19 C18         -4.3130    -0.0840     1.9470 c3         1 7CM      -0.168400
     20 C19         -2.8460    -0.1120     2.3140 c          1 7CM       0.706500
     21 O20         -2.4140    -0.2200     3.4420 o          1 7CM      -0.616500
     22 C23          2.0800     0.0000     1.2050 ca         1 7CM      -0.138000
     23 O24          3.5580     1.8970    -0.6350 o          1 7CM      -0.626800
     24 H131        -0.5420     0.0010    -0.9380 ha         1 7CM       0.136000
     25 H171        -4.4520    -1.4150     0.2260 hc         1 7CM       0.063700
     26 H172        -5.0980     0.2290    -0.0630 hc         1 7CM       0.063700
     27 H211        -0.5310    -0.0020     3.3440 ha         1 7CM       0.187000
     28 H221         1.9320    -0.0010     3.3380 ha         1 7CM       0.144000
     29 H041         1.5740     3.3720    -0.0940 ha         1 7CM       0.166000
     30 H051        -0.2070     5.0110    -0.5600 ha         1 7CM       0.159000
     31 H061         1.3420     1.9700    -4.1210 ha         1 7CM       0.170000
     32 H111         2.1660    -0.8430    -1.7400 hn         1 7CM       0.466800
     33 H161        -2.5330    -0.5100    -0.7840 h1         1 7CM       0.055700
     34 H162        -2.9610     1.1550    -0.3190 h1         1 7CM       0.055700
     35 H181        -4.8500    -0.8620     2.4760 hc         1 7CM       0.082200
     36 H182        -4.7370     0.8900     2.1600 hc         1 7CM       0.082200
     37 H231         3.1630     0.0000     1.2060 ha         1 7CM       0.153000
     38 N11          2.0860     0.0010    -1.2080 nu         1 7CM      -0.779500
@<TRIPOS>BOND
     1     1    15 ar
     2     1    16 ar
     3     2    18 1
     4     2    19 1
     5     3     4 ar
     6     3    16 ar
     7     4    22 ar
     8     5     6 2
     9     6     7 1
    10     6    38 1
    11     6    23 2
    12     7     8 ar
    13     7    10 ar
    14     8     9 ar
    15     9    13 ar
    16    10    11 ar
    17    11    12 1
    18    11    13 ar
    19    13    14 1
    20    38    15 1
    21    15    22 ar
    22    16    17 1
    23    17    18 1
    24    17    20 1
    25    19    20 1
    26    20    21 2
    27     1    24 1
    28     2    25 1
    29     2    26 1
    30     3    27 1
    31     4    28 1
    32     8    29 1
    33     9    30 1
    34    10    31 1
    35    38    32 1
    36    18    33 1
    37    18    34 1
    38    19    35 1
    39    19    36 1
    40    22    37 1
@<TRIPOS>SUBSTRUCTURE
     1 7CM         1 TEMP              0 ****  ****    0 ROOT
