@<TRIPOS>MOLECULE
molecule
   36    38     1     0     0
SMALL
bcc


@<TRIPOS>ATOM
      1 C10          0.0000     0.0000     0.0000 c3         1 7CN      -0.156200
      2 C13         -0.2050     0.0010     4.3240 ca         1 7CN      -0.165000
      3 C15          1.1590    -0.0020     6.2920 ca         1 7CN      -0.184000
      4 C17          2.5520    -3.3450     6.7910 ca         1 7CN      -0.012000
      5 C20          4.7960    -4.5960     5.7690 ca         1 7CN      -0.045900
      6 C22          4.8850    -3.3050     6.2570 ca         1 7CN      -0.002000
      7 S02          3.8730    -1.0290     7.3730 sy         1 7CN       1.426200
      8 C04          2.3030    -0.0090     5.5030 ca         1 7CN       0.153600
      9 C05          2.1900     0.0030     4.1190 ca         1 7CN      -0.184000
     10 C06          0.9350     0.0020     3.5290 ca         1 7CN       0.071600
     11 N07          0.8170     0.0020     2.1340 n          1 7CN      -0.286200
     12 C08          1.8910     0.0000     1.2620 c2         1 7CN      -0.026400
     13 C09          1.5150     0.0000     0.0000 c2         1 7CN      -0.242200
     14 C11         -0.3580     0.0010     1.4730 c          1 7CN       0.701500
     15 O12         -1.4700     0.0030     1.9560 o          1 7CN      -0.595500
     16 C14         -0.0890     0.0020     5.7000 ca         1 7CN      -0.087000
     17 C16          3.7620    -2.6780     6.7640 ca         1 7CN      -0.313500
     18 C18          2.4640    -4.6390     6.3130 ca         1 7CN      -0.148000
     19 C19          3.5860    -5.2650     5.8020 ca         1 7CN      -0.049000
     20 O23          2.7980    -0.8650     8.2870 o          1 7CN      -0.629300
     21 H1          -0.3790     0.8920    -0.4830 hc         1 7CN       0.094200
     22 H2          -0.3790    -0.8930    -0.4820 hc         1 7CN       0.094200
     23 H3          -1.1860     0.0030     3.8630 ha         1 7CN       0.184000
     24 H4           1.2460    -0.0020     7.3720 ha         1 7CN       0.182000
     25 H5           1.6720    -2.8540     7.1900 ha         1 7CN       0.157000
     26 H6           5.8340    -2.7810     6.2340 ha         1 7CN       0.163000
     27 H7           4.2690     0.6250     5.7900 hn         1 7CN       0.466800
     28 H8           3.0800     0.0010     3.5020 ha         1 7CN       0.137000
     29 H9           2.8220    -0.4750     1.5500 h4         1 7CN       0.171000
     30 H10          2.0560     0.5930    -0.7270 ha         1 7CN       0.168000
     31 H11         -0.9800     0.0040     6.3170 ha         1 7CN       0.144000
     32 H12          1.5150    -5.1620     6.3370 ha         1 7CN       0.146000
     33 H13          3.5160    -6.2780     5.4230 ha         1 7CN       0.148000
     34 N03          3.5650    -0.0140     6.1010 nu         1 7CN      -0.769500
     35 Br1          6.3300    -5.4510     5.0700 br         1 7CN      -0.083100
     36 O01          5.2340    -0.8230     7.7300 o          1 7CN      -0.629300
@<TRIPOS>BOND
     1    13     1 1   
     2    13    12 2   
     3     1    14 1   
     4    12    11 1   
     5    14    11 1   
     6    14    15 2   
     7    11    10 1   
     8    10     9 ar  
     9    10     2 ar  
    10     9     8 ar  
    11    36     7 2   
    12     2    16 ar  
    13     8    34 1   
    14     8     3 ar  
    15    34     7 1   
    16     7    20 2   
    17     7    17 1   
    18    16     3 ar  
    19    17     6 ar  
    20    17     4 ar  
    21     6     5 ar  
    22     4    18 ar  
    23     5    35 1   
    24     5    19 ar  
    25    18    19 ar  
    26     1    21 1   
    27     1    22 1   
    28     2    23 1   
    29     3    24 1   
    30     4    25 1   
    31     6    26 1   
    32    34    27 1   
    33     9    28 1   
    34    12    29 1   
    35    13    30 1   
    36    16    31 1   
    37    18    32 1   
    38    19    33 1   
@<TRIPOS>SUBSTRUCTURE
     1 7CN         1 TEMP              0 ****  ****    0 ROOT
