@<TRIPOS>MOLECULE
7CO
   38    40     1     0     0
SMALL
bcc


@<TRIPOS>ATOM
      1 C13          0.0000     0.0000     0.0000 ca         1 7CO      -0.174000
      2 C17         -4.3280    -0.3600     0.4260 c3         1 7CO      -0.029400
      3 C21          0.0090    -0.0010     2.4040 ca         1 7CO      -0.146000
      4 C22          1.3900     0.0010     2.4010 ca         1 7CO      -0.060000
      5 O01          3.4120     1.0710    -2.9950 o          1 7CO      -0.565800
      6 S02          2.8110     1.3900    -1.7460 sy         1 7CO       1.039200
      7 C03          1.5290     2.5470    -2.0910 ca         1 7CO      -0.236500
      8 C04          1.1010     3.4210    -1.1070 ca         1 7CO       0.246400
      9 F05          1.6680     3.3870     0.1190 f          1 7CO      -0.103900
     10 C06          0.0930     4.3300    -1.3790 ca         1 7CO      -0.182500
     11 C07         -0.4870     4.3640    -2.6330 ca         1 7CO       0.004000
     12 C08         -0.0610     3.4930    -3.6170 ca         1 7CO      -0.182500
     13 C09          0.9510     2.5860    -3.3490 ca         1 7CO       0.246400
     14 F10          1.3720     1.7370    -4.3130 f          1 7CO      -0.103900
     15 C12          1.3880     0.0000     0.0000 ca         1 7CO       0.061600
     16 C14         -0.6900    -0.0010     1.2030 ca         1 7CO      -0.054400
     17 N15         -2.0900     0.0000     1.2070 n          1 7CO       0.007000
     18 C16         -2.9210     0.1190     0.0040 c3         1 7CO       0.028000
     19 C18         -4.3120    -0.0820     1.9470 c3         1 7CO      -0.114400
     20 C19         -2.8450    -0.1090     2.3140 c          1 7CO       0.622500
     21 O20         -2.4130    -0.2140     3.4420 o          1 7CO      -0.653500
     22 C23          2.0820     0.0000     1.2040 ca         1 7CO      -0.104000
     23 O24          3.5400     1.9140    -0.6450 o          1 7CO      -0.565800
     24 H131        -0.5430    -0.0000    -0.9370 ha         1 7CO       0.113000
     25 H172        -4.4490    -1.4190     0.2290 hc         1 7CO       0.029200
     26 H171        -5.0970     0.2240    -0.0650 hc         1 7CO       0.029200
     27 H211        -0.5300    -0.0010     3.3430 ha         1 7CO       0.169000
     28 H221         1.9330     0.0010     3.3380 ha         1 7CO       0.108000
     29 H061        -0.2420     5.0140    -0.6090 ha         1 7CO       0.129000
     30 H071        -1.2770     5.0750    -2.8450 ha         1 7CO       0.110000
     31 H081        -0.5140     3.5220    -4.6000 ha         1 7CO       0.129000
     32 H161        -2.5310    -0.5150    -0.7840 h1         1 7CO       0.023700
     33 H162        -2.9610     1.1510    -0.3220 h1         1 7CO       0.023700
     34 H181        -4.8480    -0.8590     2.4790 hc         1 7CO       0.045700
     35 H182        -4.7350     0.8930     2.1570 hc         1 7CO       0.045700
     36 H231         3.1650     0.0010     1.2050 ha         1 7CO       0.128000
     37 H111         2.1810    -0.8470    -1.7330 hn         1 7CO       0.351800
     38 N11          2.0870     0.0000    -1.2090 nu         1 7CO      -0.412500
@<TRIPOS>BOND
     1     1    15 ar  
     2     1    16 ar  
     3     1    24 1   
     4     2    18 1   
     5     2    19 1   
     6     2    25 1   
     7     2    26 1   
     8     3     4 ar  
     9     3    16 ar  
    10     3    27 1   
    11     4    22 ar  
    12     4    28 1   
    13     5     6 2   
    14     6     7 1   
    15     6    23 2   
    16     6    38 1   
    17     7     8 ar  
    18     7    13 ar  
    19     8     9 1   
    20     8    10 ar  
    21    10    11 ar  
    22    10    29 1   
    23    11    12 ar  
    24    11    30 1   
    25    12    13 ar  
    26    12    31 1   
    27    13    14 1   
    28    15    22 ar  
    29    15    38 1   
    30    16    17 1   
    31    17    18 1   
    32    17    20 1   
    33    18    32 1   
    34    18    33 1   
    35    19    20 1   
    36    19    34 1   
    37    19    35 1   
    38    20    21 2   
    39    22    36 1   
    40    37    38 1   
@<TRIPOS>SUBSTRUCTURE
     1 7CO         1 TEMP              0 ****  ****    0 ROOT
