@<TRIPOS>MOLECULE
molecule
   43    46     1     0     0
SMALL
bcc


@<TRIPOS>ATOM
      1 C1L          0.0000     0.0000     0.0000 c3         1 7CP      -0.128400
      2 C1J          1.5300     0.0000     0.0000 c3         1 7CP       0.162800
      3 N1W          2.0210     0.0000     1.3850 n3         1 7CP      -0.715600
      4 C1A          1.5990     1.2150     2.0940 c3         1 7CP       0.145100
      5 C1K          1.5850    -1.2050     2.1020 c3         1 7CP       0.162800
      6 C1M          0.0560    -1.2410     2.1610 c3         1 7CP      -0.128400
      7 C1Y         -0.5050    -1.2490     0.7350 c3         1 7CP       0.135400
      8 N1N         -0.0280    -2.4410     0.0370 ns         1 7CP      -0.542900
      9 C1O         -0.6230    -2.9070    -1.0830 c          1 7CP       0.725700
     10 O1D         -0.1090    -3.7790    -1.7580 o          1 7CP      -0.615500
     11 C1R         -1.9200    -2.3130    -1.4520 cc         1 7CP      -0.127300
     12 N1X         -2.6580    -2.4460    -2.6010 na         1 7CP       0.007600
     13 C1B         -2.2950    -3.2560    -3.7650 c3         1 7CP       0.019600
     14 C1U         -3.7920    -1.6950    -2.4730 ca         1 7CP      -0.031200
     15 C1Q         -4.8580    -1.4740    -3.3450 ca         1 7CP       0.020400
     16 Cl1F        -4.9120    -2.2090    -4.9170 cl         1 7CP      -0.080400
     17 C1P         -5.8720    -0.6390    -2.9020 ca         1 7CP       0.055400
     18 Cl1E        -7.2230    -0.3290    -3.9470 cl         1 7CP      -0.085400
     19 C1H         -5.8420    -0.0460    -1.6480 ca         1 7CP      -0.143000
     20 C1I         -4.8100    -0.2440    -0.7690 ca         1 7CP      -0.068000
     21 C1T         -3.7660    -1.0850    -1.1880 ca         1 7CP      -0.083800
     22 C1S         -2.5890    -1.4990    -0.5690 cd         1 7CP      -0.131400
     23 C1V         -2.0340    -1.2000     0.8000 c3         1 7CP       0.057600
     24 C1G         -2.5190    -2.2050     1.7590 c1         1 7CP       0.212700
     25 N1C         -2.9120    -2.9810     2.4900 n1         1 7CP      -0.358800
     26 H1L         -0.3500     0.9470     0.3920 hc         1 7CP       0.061700
     27 H1LA        -0.3500    -0.1170    -1.0180 hc         1 7CP       0.061700
     28 H1J          1.8800    -0.8180    -0.6180 h1         1 7CP       0.062700
     29 H1JA         1.8800     0.9370    -0.4160 h1         1 7CP       0.062700
     30 H1A          1.9830     2.0860     1.5760 h1         1 7CP       0.034033
     31 H1AA         0.5170     1.2600     2.1220 h1         1 7CP       0.034033
     32 H1AB         1.9860     1.1970     3.1050 h1         1 7CP       0.034033
     33 H1K          2.0820    -2.0670     1.6730 h1         1 7CP       0.062700
     34 H1KA         1.8660    -1.1140     3.1440 h1         1 7CP       0.062700
     35 H1M         -0.2890    -0.4330     2.7950 hc         1 7CP       0.061700
     36 H1MA        -0.2560    -2.1870     2.5860 hc         1 7CP       0.061700
     37 HN1N         0.3800    -3.2270     0.5030 hn         1 7CP       0.328500
     38 H1B         -1.3950    -3.8180    -3.5470 h1         1 7CP       0.071033
     39 H1BA        -2.1190    -2.6090    -4.6150 h1         1 7CP       0.071033
     40 H1BB        -3.1020    -3.9420    -3.9940 h1         1 7CP       0.071033
     41 H1H         -6.6530     0.6010    -1.3360 ha         1 7CP       0.149000
     42 H1I         -4.8250     0.2380     0.2010 ha         1 7CP       0.146000
     43 H1V         -2.3510    -0.2120     1.1100 hc         1 7CP       0.095700
@<TRIPOS>BOND
     1     1     2 1   
     2     1     7 1   
     3     2     3 1   
     4     3     4 1   
     5     3     5 1   
     6     5     6 1   
     7     6     7 1   
     8     7     8 1   
     9     7    23 1   
    10     8     9 1   
    11     9    10 2   
    12     9    11 1   
    13    11    12 1   
    14    11    22 2   
    15    12    13 1   
    16    12    14 1   
    17    14    15 ar  
    18    14    21 ar  
    19    15    16 1   
    20    15    17 ar  
    21    17    18 1   
    22    17    19 ar  
    23    19    20 ar  
    24    20    21 ar  
    25    21    22 1   
    26    22    23 1   
    27    23    24 1   
    28    24    25 3   
    29     1    26 1   
    30     1    27 1   
    31     2    28 1   
    32     2    29 1   
    33     4    30 1   
    34     4    31 1   
    35     4    32 1   
    36     5    33 1   
    37     5    34 1   
    38     6    35 1   
    39     6    36 1   
    40     8    37 1   
    41    13    38 1   
    42    13    39 1   
    43    13    40 1   
    44    19    41 1   
    45    20    42 1   
    46    23    43 1   
@<TRIPOS>SUBSTRUCTURE
     1 7CP         1 TEMP              0 ****  ****    0 ROOT
