@<TRIPOS>MOLECULE
molecule
   44    46     1     0     0
SMALL
bcc


@<TRIPOS>ATOM
      1 N12          0.0000     0.0000     0.0000 nu         1 7CQ      -0.853400
      2 C13          1.3970     0.0000     0.0000 ca         1 7CQ       0.177600
      3 C15          3.4790    -0.0060    -1.1980 ca         1 7CQ       0.087600
      4 C17          5.6410     0.1200    -2.5170 c3         1 7CQ       0.081000
      5 C20          3.6100    -0.1240    -3.6180 c          1 7CQ       0.705500
      6 C22          4.1680    -0.0010     0.0080 ca         1 7CQ      -0.196000
      7 C24          2.0930     0.0000     1.2020 ca         1 7CQ      -0.223000
      8 S02         -0.8740     0.5280     1.4210 s6         1 7CQ       0.739900
      9 C03         -1.7130     1.7930     0.4350 ca         1 7CQ      -0.019500
     10 C04         -2.5960     1.4190    -0.5670 ca         1 7CQ       0.218100
     11 O05         -2.8340     0.1030    -0.8100 os         1 7CQ      -0.297900
     12 C06         -3.7550    -0.2070    -1.8570 c3         1 7CQ       0.127700
     13 C07         -3.2380     2.3920    -1.3210 ca         1 7CQ      -0.234000
     14 C08         -2.9960     3.7280    -1.0720 ca         1 7CQ      -0.027000
     15 C09         -2.1140     4.0990    -0.0730 ca         1 7CQ      -0.073900
     16 Br1         -1.7850     5.9300     0.2660 br         1 7CQ      -0.090100
     17 C11         -1.4770     3.1320     0.6840 ca         1 7CQ       0.019000
     18 C14          2.0920    -0.0060    -1.2020 ca         1 7CQ      -0.151000
     19 N16          4.1820    -0.0060    -2.4080 n          1 7CQ      -0.377000
     20 C18          5.9910    -0.3620    -3.9420 c3         1 7CQ      -0.084400
     21 C19          4.6690    -0.0950    -4.6980 c3         1 7CQ      -0.195400
     22 C23          3.4740    -0.0010     1.2030 ca         1 7CQ      -0.087000
     23 O25         -1.5430    -0.9850     1.5720 oh         1 7CQ      -0.625700
     24 H172         5.9130     1.1510    -2.7100 h1         1 7CQ       0.057200
     25 H171         6.1170    -0.2380    -1.6120 h1         1 7CQ       0.057200
     26 H221         5.2520    -0.0010     0.0120 ha         1 7CQ       0.126000
     27 H241         1.5530     0.0000     2.1410 ha         1 7CQ       0.103000
     28 H1          -1.4120     0.5850     3.5180 ho         1 7CQ       0.416500
     29 H061        -3.6640     0.5270    -2.6480 h1         1 7CQ       0.048367
     30 H062        -3.5350    -1.1920    -2.2510 h1         1 7CQ       0.048367
     31 H063        -4.7650    -0.1920    -1.4650 h1         1 7CQ       0.048367
     32 H071        -3.9290     2.1020    -2.1040 ha         1 7CQ       0.149000
     33 H081        -3.4970     4.4880    -1.6600 ha         1 7CQ       0.147000
     34 H111        -0.7900     3.4240     1.4690 ha         1 7CQ       0.153000
     35 H141         1.5500    -0.0100    -2.1410 ha         1 7CQ       0.197000
     36 H182         6.8150     0.2170    -4.3420 hc         1 7CQ       0.057200
     37 H181         6.2330    -1.4180    -3.9310 hc         1 7CQ       0.057200
     38 H191         4.4010     0.6200    -5.4670 hc         1 7CQ       0.089700
     39 H192         4.7980    -1.0830    -5.1230 hc         1 7CQ       0.089700
     40 H231         4.0140     0.0030     2.1430 ha         1 7CQ       0.126000
     41 H2          -1.3970    -1.3070     2.4450 ho         1 7CQ       0.416500
     42 H121        -0.5000     0.8340     0.2350 hn         1 7CQ       0.227800
     43 O21          2.4180    -0.2370    -3.8150 o          1 7CQ      -0.611500
     44 O01         -1.7090     1.0540     2.7560 oh         1 7CQ      -0.625700
@<TRIPOS>BOND
     1     1     2 1   
     2     1     8 3   
     3     2     7 ar  
     4     2    18 ar  
     5     3     6 ar  
     6     3    18 ar  
     7     3    19 1   
     8     4    19 1   
     9     4    20 1   
    10     5    19 1   
    11     5    21 1   
    12     5    43 2   
    13     6    22 ar  
    14     7    22 ar  
    15    44     8 1   
    16     8     9 1   
    17     8    23 1   
    18     9    10 ar  
    19     9    17 ar  
    20    10    11 1   
    21    10    13 ar  
    22    11    12 1   
    23    13    14 ar  
    24    14    15 ar  
    25    15    16 1   
    26    15    17 ar  
    27    20    21 1   
    28     1    42 1   
    29     4    24 1   
    30     4    25 1   
    31     6    26 1   
    32     7    27 1   
    33    44    28 1   
    34    12    29 1   
    35    12    30 1   
    36    12    31 1   
    37    13    32 1   
    38    14    33 1   
    39    17    34 1   
    40    18    35 1   
    41    20    36 1   
    42    20    37 1   
    43    21    38 1   
    44    21    39 1   
    45    22    40 1   
    46    23    41 1   
@<TRIPOS>SUBSTRUCTURE
     1 7CQ         1 TEMP              0 ****  ****    0 ROOT
