@<TRIPOS>MOLECULE
7CR
   55    58     1     0     0
SMALL
bcc


@<TRIPOS>ATOM
      1 C1           0.0000     0.0000     0.0000 c3         1 7CR      -0.044400
      2 C2          -0.5100     1.3080     0.6100 c3         1 7CR       0.153800
      3 C3          -2.5040     2.6330     0.9650 c3         1 7CR       0.131800
      4 C4          -4.0260     2.6420     0.7780 c3         1 7CR       0.056500
      5 C5          -4.0260     0.1810     1.3400 c3         1 7CR       0.056500
      6 C6          -2.5050     0.2690     1.5040 c3         1 7CR       0.131800
      7 C8          -7.2190     0.9650     4.0000 c3         1 7CR       0.299700
      8 C10         -7.0700    -0.6920     5.8700 ca         1 7CR      -0.074500
      9 C11         -7.4730    -1.8580     6.4950 ca         1 7CR      -0.032600
     10 C12         -8.4610    -2.6410     5.9270 ca         1 7CR      -0.090000
     11 C13         -9.0460    -2.2570     4.7330 ca         1 7CR      -0.032600
     12 C15          2.0320    -1.2310    -0.7100 ca         1 7CR      -0.126300
     13 C16          2.0650    -2.4440    -0.0460 ca         1 7CR      -0.065000
     14 C17          2.5250    -3.5760    -0.6900 ca         1 7CR      -0.083000
     15 C19          3.7030    -3.7860    -4.0650 c          1 7CR       0.739600
     16 C20          2.9140    -2.2740    -2.6780 ca         1 7CR       0.060100
     17 C21          2.4520    -1.1430    -2.0240 ca         1 7CR      -0.061000
     18 Cl1        -10.2870    -3.2390     4.0200 cl         1 7CR      -0.014900
     19 O3           4.1490    -4.2990    -5.0740 o          1 7CR      -0.659500
     20 N2           3.4560    -4.4310    -2.9090 ns         1 7CR      -0.017100
     21 O4           3.3790    -2.4900    -3.9330 os         1 7CR      -0.243200
     22 C18          2.9530    -3.4950    -2.0060 ca         1 7CR      -0.186400
     23 C            1.5300     0.0000     0.0000 c3         1 7CR       0.253400
     24 O            2.0070     0.0000     1.3470 oh         1 7CR      -0.586800
     25 N           -1.9790     1.3080     0.6100 n3         1 7CR      -0.541600
     26 N1          -4.5960     1.5220     1.5400 n          1 7CR      -0.138800
     27 C7          -5.6150     1.7180     2.4020 c          1 7CR       0.698100
     28 O1          -6.0730     2.8320     2.5560 o          1 7CR      -0.661000
     29 O2          -6.1240     0.6800     3.0910 os         1 7CR      -0.420900
     30 C9          -7.6550    -0.3080     4.6780 ca         1 7CR      -0.097300
     31 C14         -8.6430    -1.0910     4.1090 ca         1 7CR      -0.074500
     32 H1          -0.3610    -0.0890    -1.0170 hc         1 7CR       0.035200
     33 H2          -0.3610    -0.8360     0.5860 hc         1 7CR       0.035200
     34 H3          -0.1480     1.3980     1.6270 h1         1 7CR       0.014700
     35 H4          -0.1490     2.1450     0.0230 h1         1 7CR       0.014700
     36 H5          -2.0580     3.3820     0.3210 h1         1 7CR       0.019950
     37 H6          -2.2670     2.8500     1.9990 h1         1 7CR       0.019950
     38 H7          -4.2640     2.5260    -0.2720 h1         1 7CR       0.037450
     39 H8          -4.4310     3.5770     1.1480 h1         1 7CR       0.037450
     40 H9          -4.4320    -0.5010     2.0780 h1         1 7CR       0.037450
     41 H10         -4.2640    -0.1690     0.3430 h1         1 7CR       0.037450
     42 H11         -2.0590    -0.6850     1.2500 h1         1 7CR       0.019950
     43 H12         -2.2680     0.5220     2.5300 h1         1 7CR       0.019950
     44 H13         -8.0510     1.3810     3.4450 h1         1 7CR       0.018200
     45 H14         -6.8910     1.6780     4.7480 h1         1 7CR       0.018200
     46 H15         -6.2960    -0.0790     6.3160 ha         1 7CR       0.121500
     47 H16         -8.7780    -3.5540     6.4160 ha         1 7CR       0.126000
     48 H17          1.7340    -2.5050     0.9840 ha         1 7CR       0.124000
     49 H18          2.5500    -4.5250    -0.1690 ha         1 7CR       0.109000
     50 H19          2.4250    -0.1910    -2.5400 ha         1 7CR       0.117000
     51 H20          3.7070    -5.3770    -2.6980 hn         1 7CR       0.201500
     52 H21          1.8910     0.8840    -0.5110 h1         1 7CR       0.005700
     53 H22          2.7930     0.5180     1.4020 ho         1 7CR       0.394000
     54 H24         -9.1000    -0.7900     3.1750 ha         1 7CR       0.121500
     55 Cl          -6.7380    -2.3390     7.9930 cl         1 7CR      -0.014900
@<TRIPOS>BOND
     1     1     2 1   
     2     1    23 1   
     3     1    32 1   
     4     1    33 1   
     5     2    25 1   
     6     2    34 1   
     7     2    35 1   
     8     3     4 1   
     9     3    25 1   
    10     3    36 1   
    11     3    37 1   
    12     4    26 1   
    13     4    38 1   
    14     4    39 1   
    15     5     6 1   
    16     5    26 1   
    17     5    40 1   
    18     5    41 1   
    19     6    25 1   
    20     6    42 1   
    21     6    43 1   
    22     7    29 1   
    23     7    30 1   
    24     7    44 1   
    25     7    45 1   
    26     8     9 ar  
    27     8    30 ar  
    28     8    46 1   
    29     9    10 ar  
    30     9    55 1   
    31    10    11 ar  
    32    10    47 1   
    33    11    18 1   
    34    11    31 ar  
    35    12    13 ar  
    36    12    17 ar  
    37    12    23 1   
    38    13    14 ar  
    39    13    48 1   
    40    14    22 ar  
    41    14    49 1   
    42    15    19 2   
    43    15    20 1   
    44    15    21 1   
    45    16    17 ar  
    46    16    21 1   
    47    16    22 ar  
    48    17    50 1   
    49    20    22 1   
    50    20    51 1   
    51    23    24 1   
    52    23    52 1   
    53    24    53 1   
    54    26    27 1   
    55    27    28 2   
    56    27    29 1   
    57    30    31 ar  
    58    31    54 1   
@<TRIPOS>SUBSTRUCTURE
     1 7CR         1 TEMP              0 ****  ****    0 ROOT
