@<TRIPOS>MOLECULE
molecule
   55    58     1     0     0
SMALL
bcc


@<TRIPOS>ATOM
      1 C1           0.0000     0.0000     0.0000 c3         1 7CR      -0.078400
      2 C2          -0.5100     1.3080     0.6100 c3         1 7CR       0.160800
      3 C3          -2.5040     2.6330     0.9650 c3         1 7CR       0.142300
      4 C4          -4.0260     2.6420     0.7780 c3         1 7CR       0.118000
      5 C5          -4.0260     0.1810     1.3400 c3         1 7CR       0.118000
      6 C6          -2.5050     0.2690     1.5040 c3         1 7CR       0.142300
      7 C8          -7.2190     0.9650     4.0000 c3         1 7CR       0.216700
      8 C10         -7.0700    -0.6920     5.8700 ca         1 7CR      -0.098500
      9 C11         -7.4730    -1.8580     6.4950 ca         1 7CR       0.030400
     10 C12         -8.4610    -2.6410     5.9270 ca         1 7CR      -0.108000
     11 C13         -9.0460    -2.2570     4.7330 ca         1 7CR       0.030400
     12 C15          2.0320    -1.2310    -0.7100 ca         1 7CR      -0.116300
     13 C16          2.0650    -2.4440    -0.0460 ca         1 7CR      -0.087000
     14 C17          2.5250    -3.5760    -0.6900 ca         1 7CR      -0.126000
     15 C19          3.7030    -3.7860    -4.0650 c          1 7CR       0.824600
     16 C20          2.9140    -2.2740    -2.6780 ca         1 7CR       0.053100
     17 C21          2.4520    -1.1430    -2.0240 ca         1 7CR      -0.089000
     18 Cl1        -10.2870    -3.2390     4.0200 cl         1 7CR      -0.093900
     19 O3           4.1490    -4.2990    -5.0740 o          1 7CR      -0.599500
     20 N2           3.4560    -4.4310    -2.9090 ns         1 7CR      -0.468100
     21 O4           3.3790    -2.4900    -3.9330 os         1 7CR      -0.265200
     22 C18          2.9530    -3.4950    -2.0060 ca         1 7CR      -0.026400
     23 C            1.5300     0.0000     0.0000 c3         1 7CR       0.197400
     24 O            2.0070     0.0000     1.3470 oh         1 7CR      -0.603800
     25 N           -1.9790     1.3080     0.6100 n3         1 7CR      -0.733600
     26 N1          -4.5960     1.5220     1.5400 n          1 7CR      -0.479800
     27 C7          -5.6150     1.7180     2.4020 c          1 7CR       0.754100
     28 O1          -6.0730     2.8320     2.5560 o          1 7CR      -0.614000
     29 O2          -6.1240     0.6800     3.0910 os         1 7CR      -0.438900
     30 C9          -7.6550    -0.3080     4.6780 ca         1 7CR      -0.082300
     31 C14         -8.6430    -1.0910     4.1090 ca         1 7CR      -0.098500
     32 H1          -0.3610    -0.0890    -1.0170 hc         1 7CR       0.064200
     33 H2          -0.3610    -0.8360     0.5860 hc         1 7CR       0.064200
     34 H3          -0.1480     1.3980     1.6270 h1         1 7CR       0.040700
     35 H4          -0.1490     2.1450     0.0230 h1         1 7CR       0.040700
     36 H5          -2.0580     3.3820     0.3210 h1         1 7CR       0.045200
     37 H6          -2.2670     2.8500     1.9990 h1         1 7CR       0.045200
     38 H7          -4.2640     2.5260    -0.2720 h1         1 7CR       0.067450
     39 H8          -4.4310     3.5770     1.1480 h1         1 7CR       0.067450
     40 H9          -4.4320    -0.5010     2.0780 h1         1 7CR       0.067450
     41 H10         -4.2640    -0.1690     0.3430 h1         1 7CR       0.067450
     42 H11         -2.0590    -0.6850     1.2500 h1         1 7CR       0.045200
     43 H12         -2.2680     0.5220     2.5300 h1         1 7CR       0.045200
     44 H13         -8.0510     1.3810     3.4450 h1         1 7CR       0.062200
     45 H14         -6.8910     1.6780     4.7480 h1         1 7CR       0.062200
     46 H15         -6.2960    -0.0790     6.3160 ha         1 7CR       0.152500
     47 H16         -8.7780    -3.5540     6.4160 ha         1 7CR       0.159000
     48 H17          1.7340    -2.5050     0.9840 ha         1 7CR       0.156000
     49 H18          2.5500    -4.5250    -0.1690 ha         1 7CR       0.140000
     50 H19          2.4250    -0.1910    -2.5400 ha         1 7CR       0.148000
     51 H20          3.7070    -5.3770    -2.6980 hn         1 7CR       0.368500
     52 H21          1.8910     0.8840    -0.5110 h1         1 7CR       0.040700
     53 H22          2.7930     0.5180     1.4020 ho         1 7CR       0.408000
     54 H24         -9.1000    -0.7900     3.1750 ha         1 7CR       0.152500
     55 Cl          -6.7380    -2.3390     7.9930 cl         1 7CR      -0.093900
@<TRIPOS>BOND
     1    18    11 1   
     2    10    11 ar  
     3    10     9 ar  
     4    11    31 ar  
     5    55     9 1   
     6     9     8 ar  
     7    31    30 ar  
     8     8    30 ar  
     9    30     7 1   
    10    19    15 2   
    11     4     3 1   
    12     4    26 1   
    13    21    15 1   
    14    21    16 1   
    15     3    25 1   
    16    15    20 1   
    17    29     7 1   
    18    29    27 1   
    19    16    17 ar  
    20    16    22 ar  
    21    17    12 ar  
    22    20    22 1   
    23     1    23 1   
    24     1     2 1   
    25    26    27 1   
    26    26     5 1   
    27    22    14 ar  
    28    12    23 1   
    29    12    13 ar  
    30    27    28 2   
    31    23    24 1   
    32    25     2 1   
    33    25     6 1   
    34    14    13 ar  
    35     5     6 1   
    36     1    32 1   
    37     1    33 1   
    38     2    34 1   
    39     2    35 1   
    40     3    36 1   
    41     3    37 1   
    42     4    38 1   
    43     4    39 1   
    44     5    40 1   
    45     5    41 1   
    46     6    42 1   
    47     6    43 1   
    48     7    44 1   
    49     7    45 1   
    50     8    46 1   
    51    10    47 1   
    52    13    48 1   
    53    14    49 1   
    54    17    50 1   
    55    20    51 1   
    56    23    52 1   
    57    24    53 1   
    58    31    54 1   
@<TRIPOS>SUBSTRUCTURE
     1 7CR         1 TEMP              0 ****  ****    0 ROOT
