@<TRIPOS>MOLECULE
molecule
   40    43     1     0     0
SMALL
bcc


@<TRIPOS>ATOM
      1 C12          0.0000     0.0000     0.0000 cc         1 7CS      -0.208400
      2 O4          -2.0860     0.0110    -1.0310 o          1 7CS      -0.557000
      3 C9          -0.8790     0.0060    -1.1750 c          1 7CS       0.666300
      4 C11          1.3650     0.0000     0.0000 cd         1 7CS      -0.031100
      5 O3          -0.3490     0.0050    -2.4140 os         1 7CS      -0.424900
      6 C7           0.8080    -1.8110    -3.4900 c3         1 7CS      -0.112400
      7 C6           1.4090    -0.4790    -3.9840 c3         1 7CS      -0.112400
      8 N1           0.0270    -1.3910    -5.7130 n3         1 7CS      -0.696600
      9 C5           0.5590    -0.0940    -5.2170 c3         1 7CS       0.152500
     10 C4          -0.6410     0.7300    -4.7210 c3         1 7CS      -0.075900
     11 C1          -0.3520    -2.1100    -4.4680 c3         1 7CS       0.152500
     12 C2          -1.6170    -1.4320    -3.9180 c3         1 7CS      -0.075900
     13 C3          -1.2780     0.0100    -3.5300 c3         1 7CS       0.152100
     14 C13         -0.4390     0.0020     4.1310 ca         1 7CS       0.448200
     15 N14          0.7110     0.0010     3.4920 nb         1 7CS      -0.711000
     16 C15          0.7720     0.0000     2.1670 ca         1 7CS       0.455800
     17 C16         -0.4140     0.0010     1.4140 ca         1 7CS      -0.174100
     18 C17         -1.6450     0.0020     2.0680 ca         1 7CS      -0.037000
     19 C18         -1.6470     0.0030     3.4510 ca         1 7CS      -0.280300
     20 N10          1.8220     0.0000     1.2760 na         1 7CS      -0.266100
     21 H81          1.3470    -1.5640    -7.3320 h1         1 7CS       0.033367
     22 H82          0.6590    -3.0910    -6.7640 h1         1 7CS       0.033367
     23 H83          1.9200    -2.2840    -5.8220 h1         1 7CS       0.033367
     24 H11          1.9880     0.0010    -0.8860 h4         1 7CS       0.185000
     25 H71          0.4310    -1.7030    -2.4800 hc         1 7CS       0.052450
     26 H72          1.5500    -2.5990    -3.5330 hc         1 7CS       0.052450
     27 H61          2.4450    -0.6160    -4.2690 hc         1 7CS       0.052450
     28 H62          1.3250     0.2810    -3.2160 hc         1 7CS       0.052450
     29 H5           1.1370     0.4290    -5.9690 h1         1 7CS       0.070200
     30 H41         -0.3040     1.7130    -4.4140 hc         1 7CS       0.061450
     31 H42         -1.3680     0.8280    -5.5180 hc         1 7CS       0.061450
     32 H1          -0.4890    -3.1720    -4.6320 h1         1 7CS       0.070200
     33 H21         -2.3890    -1.4320    -4.6790 hc         1 7CS       0.061450
     34 H22         -1.9680    -1.9710    -3.0460 hc         1 7CS       0.061450
     35 H3          -2.1850     0.5270    -3.2400 h1         1 7CS       0.073700
     36 H13         -0.4420     0.0020     5.2140 h4         1 7CS       0.026100
     37 H17         -2.5730     0.0030     1.5090 ha         1 7CS       0.163000
     38 H18         -2.5820     0.0030     3.9970 ha         1 7CS       0.142000
     39 HN10         2.7890    -0.0000     1.5340 hn         1 7CS       0.309700
     40 C8           1.0560    -2.1310    -6.4570 c3         1 7CS       0.140100
@<TRIPOS>BOND
     1     1    17 1
     2     1     4 2
     3     1     3 1
     4     2     3 2
     5    40     8 1
     6    40    21 1
     7    40    22 1
     8    40    23 1
     9     3     5 1
    10     4    20 1
    11     4    24 1
    12     5    13 1
    13     6     7 1
    14     6    11 1
    15     6    25 1
    16     6    26 1
    17     7     9 1
    18     7    27 1
    19     7    28 1
    20     8     9 1
    21     8    11 1
    22     9    10 1
    23     9    29 1
    24    10    13 1
    25    10    30 1
    26    10    31 1
    27    11    12 1
    28    11    32 1
    29    12    13 1
    30    12    33 1
    31    12    34 1
    32    13    35 1
    33    14    15 ar
    34    14    19 ar
    35    14    36 1
    36    15    16 ar
    37    16    20 1
    38    16    17 ar
    39    17    18 ar
    40    18    19 ar
    41    18    37 1
    42    19    38 1
    43    20    39 1
@<TRIPOS>SUBSTRUCTURE
     1 7CS         1 TEMP              0 ****  ****    0 ROOT
