@<TRIPOS>MOLECULE
7CS
   40    43     1     0     0
SMALL
bcc


@<TRIPOS>ATOM
      1 C12          0.0000     0.0000     0.0000 cc         1 7CS      -0.215400
      2 O4          -2.0860     0.0110    -1.0310 o          1 7CS      -0.597000
      3 C9          -0.8790     0.0060    -1.1750 c          1 7CS       0.740300
      4 C11          1.3650     0.0000     0.0000 cd         1 7CS      -0.213100
      5 O3          -0.3490     0.0050    -2.4140 os         1 7CS      -0.401900
      6 C7           0.8080    -1.8110    -3.4900 c3         1 7CS      -0.077400
      7 C6           1.4090    -0.4790    -3.9840 c3         1 7CS      -0.077400
      8 N1           0.0270    -1.3910    -5.7130 n3         1 7CS      -0.541600
      9 C5           0.5590    -0.0940    -5.2170 c3         1 7CS       0.135000
     10 C4          -0.6410     0.7300    -4.7210 c3         1 7CS      -0.033400
     11 C1          -0.3520    -2.1100    -4.4680 c3         1 7CS       0.135000
     12 C2          -1.6170    -1.4320    -3.9180 c3         1 7CS      -0.033400
     13 C3          -1.2780     0.0100    -3.5300 c3         1 7CS       0.188100
     14 C13         -0.4390     0.0020     4.1310 ca         1 7CS       0.415200
     15 N14          0.7110     0.0010     3.4920 nb         1 7CS      -0.574000
     16 C15          0.7720     0.0000     2.1670 ca         1 7CS       0.211800
     17 C16         -0.4140     0.0010     1.4140 ca         1 7CS      -0.161100
     18 C17         -1.6450     0.0020     2.0680 ca         1 7CS      -0.009000
     19 C18         -1.6470     0.0030     3.4510 ca         1 7CS      -0.244300
     20 N10          1.8220     0.0000     1.2760 na         1 7CS       0.287900
     21 H81          1.3470    -1.5640    -7.3320 h1         1 7CS       0.002033
     22 H82          0.6590    -3.0910    -6.7640 h1         1 7CS       0.002033
     23 H83          1.9200    -2.2840    -5.8220 h1         1 7CS       0.002033
     24 H11          1.9880     0.0010    -0.8860 h4         1 7CS       0.153000
     25 H71          0.4310    -1.7030    -2.4800 hc         1 7CS       0.032950
     26 H72          1.5500    -2.5990    -3.5330 hc         1 7CS       0.032950
     27 H61          2.4450    -0.6160    -4.2690 hc         1 7CS       0.032950
     28 H62          1.3250     0.2810    -3.2160 hc         1 7CS       0.032950
     29 H5           1.1370     0.4290    -5.9690 h1         1 7CS       0.040200
     30 H41         -0.3040     1.7130    -4.4140 hc         1 7CS       0.031450
     31 H42         -1.3680     0.8280    -5.5180 hc         1 7CS       0.031450
     32 H1          -0.4890    -3.1720    -4.6320 h1         1 7CS       0.040200
     33 H21         -2.3890    -1.4320    -4.6790 hc         1 7CS       0.031450
     34 H22         -1.9680    -1.9710    -3.0460 hc         1 7CS       0.031450
     35 H3          -2.1850     0.5270    -3.2400 h1         1 7CS       0.040700
     36 H13         -0.4420     0.0020     5.2140 h4         1 7CS      -0.020900
     37 H17         -2.5730     0.0030     1.5090 ha         1 7CS       0.132000
     38 H18         -2.5820     0.0030     3.9970 ha         1 7CS       0.116000
     39 HN10         2.7890    -0.0000     1.5340 hn         1 7CS       0.119700
     40 C8           1.0560    -2.1310    -6.4570 c3         1 7CS       0.182100
@<TRIPOS>BOND
     1     1     3 1   
     2     1     4 2   
     3     1    17 1   
     4     2     3 2   
     5     3     5 1   
     6     4    20 1   
     7     4    24 1   
     8     5    13 1   
     9     6     7 1   
    10     6    11 1   
    11     6    25 1   
    12     6    26 1   
    13     7     9 1   
    14     7    27 1   
    15     7    28 1   
    16     8     9 1   
    17     8    11 1   
    18     8    40 1   
    19     9    10 1   
    20     9    29 1   
    21    10    13 1   
    22    10    30 1   
    23    10    31 1   
    24    11    12 1   
    25    11    32 1   
    26    12    13 1   
    27    12    33 1   
    28    12    34 1   
    29    13    35 1   
    30    14    15 ar  
    31    14    19 ar  
    32    14    36 1   
    33    15    16 ar  
    34    16    17 ar  
    35    16    20 1   
    36    17    18 ar  
    37    18    19 ar  
    38    18    37 1   
    39    19    38 1   
    40    20    39 1   
    41    21    40 1   
    42    22    40 1   
    43    23    40 1   
@<TRIPOS>SUBSTRUCTURE
     1 7CS         1 TEMP              0 ****  ****    0 ROOT
