@<TRIPOS>MOLECULE
7CT
   25    26     1     0     0
SMALL
bcc


@<TRIPOS>ATOM
      1 O1           0.0000     0.0000     0.0000 o          1 7CT      -0.610300
      2 C7           4.3510     0.8480    -0.3010 ca         1 7CT      -0.215300
      3 C8           5.5890     1.3940    -0.4620 ca         1 7CT       0.425200
      4 C9           4.7580     3.3490    -1.3870 ca         1 7CT       0.443200
      5 N1           5.7600     2.6000    -0.9870 nb         1 7CT      -0.588000
      6 N            1.8900     0.0000     1.5870 n7         1 7CT      -0.595100
      7 C2           0.8740     1.8630    -0.9980 ca         1 7CT       0.006000
      8 C3           1.0820     3.1260    -1.5520 ca         1 7CT      -0.164000
      9 C4           2.3370     3.6330    -1.6940 ca         1 7CT       0.032000
     10 O            2.1970    -0.9980    -0.6490 o          1 7CT      -0.610300
     11 C5           3.4420     2.8740    -1.2760 ca         1 7CT      -0.215300
     12 C6           3.2290     1.5880    -0.7110 ca         1 7CT       0.132000
     13 C1           1.9210     1.0990    -0.5820 ca         1 7CT      -0.425500
     14 C            1.2940     0.9530     2.5270 c3         1 7CT       0.264100
     15 S            1.4210     0.0000     0.0000 sy         1 7CT       1.245200
     16 H2           6.4580     0.8270    -0.1520 h4         1 7CT      -0.017900
     17 H3           4.9470     4.3280    -1.8100 h4         1 7CT      -0.016900
     18 H4           2.5850    -0.6470     1.9040 hn         1 7CT       0.341800
     19 H5          -0.1360     1.4850    -0.8980 ha         1 7CT       0.208000
     20 H6           0.2300     3.7130    -1.8750 ha         1 7CT       0.117000
     21 H7           2.4830     4.6160    -2.1270 ha         1 7CT       0.107000
     22 H8           1.2040     0.4900     3.5030 h1         1 7CT      -0.003633
     23 H9           0.3120     1.2440     2.1740 h1         1 7CT      -0.003633
     24 H10          1.9260     1.8300     2.6010 h1         1 7CT      -0.003633
     25 H1           4.2340    -0.1390     0.1300 ha         1 7CT       0.149000
@<TRIPOS>BOND
     1     1    15 2   
     2     2     3 ar  
     3     2    12 ar  
     4     2    25 1   
     5     3     5 ar  
     6     3    16 1   
     7     4     5 ar  
     8     4    11 ar  
     9     4    17 1   
    10     6    14 1   
    11     6    15 1   
    12     6    18 1   
    13     7     8 ar  
    14     7    13 ar  
    15     7    19 1   
    16     8     9 ar  
    17     8    20 1   
    18     9    11 ar  
    19     9    21 1   
    20    10    15 2   
    21    11    12 ar  
    22    12    13 ar  
    23    13    15 1   
    24    14    22 1   
    25    14    23 1   
    26    14    24 1   
@<TRIPOS>SUBSTRUCTURE
     1 7CT         1 TEMP              0 ****  ****    0 ROOT
