@<TRIPOS>MOLECULE
molecule
   43    45     1     0     0
SMALL
bcc


@<TRIPOS>ATOM
      1 C            0.0000     0.0000     0.0000 ca         1 7CU       0.130500
      2 N            1.3310     0.0000     0.0000 nb         1 7CU      -0.613000
      3 O           -1.9500     0.1180    -1.2770 o          1 7CU      -0.367100
      4 C1          -0.7010    -0.0010     1.2210 ca         1 7CU       0.570800
      5 N2          -0.0250    -0.0000     2.3680 nb         1 7CU      -0.710000
      6 C3           1.3000    -0.0000     2.3550 ca         1 7CU       0.630900
      7 C4           1.9910     0.0000     1.1360 ca         1 7CU       0.244900
      8 C5          -0.7400     0.0060    -1.2760 c          1 7CU       0.413600
      9 N6           2.0030     0.0000     3.5460 nu         1 7CU      -0.927900
     10 C7           3.4680     0.0010     3.5330 c3         1 7CU       0.208800
     11 C8           3.9910     0.0020     4.9720 c3         1 7CU       0.091500
     12 N9           3.4120    -1.1330     5.7040 nz         1 7CU      -0.814600
     13 C10         -2.1760    -0.0000     1.2300 cc         1 7CU      -0.209900
     14 C11          5.5160    -0.1240     4.9600 c3         1 7CU      -0.121100
     15 N12         -2.9670     0.9510     1.8340 na         1 7CU      -0.157400
     16 C13         -4.2950     0.6420     1.6450 ca         1 7CU      -0.009200
     17 C14         -4.3480    -0.5490     0.8940 ca         1 7CU      -0.117800
     18 C15         -2.9630    -0.9350     0.6380 cd         1 7CU      -0.111200
     19 C16         -5.4810     1.2540     2.0370 ca         1 7CU      -0.149000
     20 C17         -6.6890     0.6920     1.6880 ca         1 7CU      -0.068000
     21 C18         -6.7380    -0.4830     0.9490 ca         1 7CU      -0.136000
     22 C19         -5.5860    -1.1020     0.5520 ca         1 7CU      -0.069000
     23 N20         -0.0740    -0.1150    -2.4430 nz         1 7CU      -0.672400
     24 H1           3.0750     0.0010     1.1300 h4         1 7CU       0.048100
     25 H2           1.5100     0.0280     4.4170 hn         1 7CU       0.453800
     26 H3           3.8240     0.8860     3.0190 h1         1 7CU       0.090200
     27 H4           3.8250    -0.8830     3.0200 h1         1 7CU       0.090200
     28 H5           3.7090     0.9270     5.4580 hx         1 7CU       0.130700
     29 H6           4.0080    -1.3750     6.4700 hn         1 7CU       0.462800
     30 H7           3.3240    -1.9170     5.0890 hn         1 7CU       0.462800
     31 H9           5.7940    -1.1140     4.6200 hc         1 7CU       0.089033
     32 H10          5.9340     0.6180     4.2900 hc         1 7CU       0.089033
     33 H11          5.9000     0.0350     5.9600 hc         1 7CU       0.089033
     34 H12         -2.6280     1.7480     2.3350 hn         1 7CU       0.306700
     35 H13         -2.6310    -1.8840     0.2340 ha         1 7CU       0.150000
     36 H14         -5.4550     2.1710     2.6130 ha         1 7CU       0.141000
     37 H15         -7.6110     1.1700     1.9950 ha         1 7CU       0.154000
     38 H16         -7.6970    -0.9110     0.6830 ha         1 7CU       0.153000
     39 H17         -5.6320    -2.0180    -0.0240 ha         1 7CU       0.141000
     40 H18         -0.7280    -0.1390    -3.2000 hn         1 7CU       0.482467
     41 H19          0.5420     0.6650    -2.5580 hn         1 7CU       0.482467
     42 H93          2.5080    -0.8790     6.0510 hn         1 7CU       0.462800
     43 H203         0.4600    -0.9620    -2.4360 hn         1 7CU       0.482467
@<TRIPOS>BOND
     1     3     8 2
     2    23     8 1
     3    19    20 ar
     4    19    16 ar
     5     8     1 1
     6    20    21 ar
     7    15    16 1
     8    15    13 1
     9    16    17 ar
    10    21    22 ar
    11     1     2 ar
    12     1     4 ar
    13    13     4 1
    14    13    18 2
    15     2     7 ar
    16    17    22 ar
    17    17    18 1
    18     4     5 ar
    19    12    11 1
    20     7     6 ar
    21     5     6 ar
    22    11    14 1
    23    11    10 1
    24     6     9 1
    25     9    10 1
    26     7    24 1
    27     9    25 1
    28    10    26 1
    29    10    27 1
    30    11    28 1
    31    12    29 1
    32    12    30 1
    33    14    31 1
    34    14    32 1
    35    14    33 1
    36    15    34 1
    37    18    35 1
    38    19    36 1
    39    20    37 1
    40    21    38 1
    41    22    39 1
    42    23    40 1
    43    23    41 1
    44    42    12 1
    45    43    23 1
@<TRIPOS>SUBSTRUCTURE
     1 7CU         1 TEMP              0 ****  ****    0 ROOT
