@<TRIPOS>MOLECULE
7CU
   43    45     1     0     0
SMALL
bcc


@<TRIPOS>ATOM
      1 C            0.0000     0.0000     0.0000 ca         1 7CU       0.067500
      2 N            1.3310     0.0000     0.0000 nb         1 7CU      -0.488000
      3 O           -1.9500     0.1180    -1.2770 o          1 7CU      -0.377100
      4 C1          -0.7010    -0.0010     1.2210 ca         1 7CU       0.567800
      5 N2          -0.0250    -0.0000     2.3680 nb         1 7CU      -0.608000
      6 C3           1.3000    -0.0000     2.3550 ca         1 7CU       0.458900
      7 C4           1.9910     0.0000     1.1360 ca         1 7CU       0.214900
      8 C5          -0.7400     0.0060    -1.2760 c          1 7CU       0.244600
      9 N6           2.0030     0.0000     3.5460 nu         1 7CU      -0.526900
     10 C7           3.4680     0.0010     3.5330 c3         1 7CU       0.149800
     11 C8           3.9910     0.0020     4.9720 c3         1 7CU      -0.079500
     12 N9           3.4120    -1.1330     5.7040 nz         1 7CU       0.062400
     13 C10         -2.1760    -0.0000     1.2300 cc         1 7CU      -0.416900
     14 C11          5.5160    -0.1240     4.9600 c3         1 7CU       0.002900
     15 N12         -2.9670     0.9510     1.8340 na         1 7CU       0.401600
     16 C13         -4.2950     0.6420     1.6450 ca         1 7CU      -0.209200
     17 C14         -4.3480    -0.5490     0.8940 ca         1 7CU      -0.108800
     18 C15         -2.9630    -0.9350     0.6380 cd         1 7CU      -0.094200
     19 C16         -5.4810     1.2540     2.0370 ca         1 7CU      -0.107000
     20 C17         -6.6890     0.6920     1.6880 ca         1 7CU      -0.042000
     21 C18         -6.7380    -0.4830     0.9490 ca         1 7CU      -0.103000
     22 C19         -5.5860    -1.1020     0.5520 ca         1 7CU      -0.038000
     23 N20         -0.0740    -0.1150    -2.4430 nz         1 7CU       0.210600
     24 H1           3.0750     0.0010     1.1300 h4         1 7CU       0.010100
     25 H2           1.5100     0.0280     4.4170 hn         1 7CU       0.300800
     26 H3           3.8240     0.8860     3.0190 h1         1 7CU       0.058700
     27 H4           3.8250    -0.8830     3.0200 h1         1 7CU       0.058700
     28 H5           3.7090     0.9270     5.4580 hx         1 7CU       0.102700
     29 H6           4.0080    -1.3750     6.4700 hn         1 7CU       0.234467
     30 H7           3.3240    -1.9170     5.0890 hn         1 7CU       0.234467
     31 H9           5.7940    -1.1140     4.6200 hc         1 7CU       0.047033
     32 H10          5.9340     0.6180     4.2900 hc         1 7CU       0.047033
     33 H11          5.9000     0.0350     5.9600 hc         1 7CU       0.047033
     34 H12         -2.6280     1.7480     2.3350 hn         1 7CU       0.116700
     35 H13         -2.6310    -1.8840     0.2340 ha         1 7CU       0.121000
     36 H14         -5.4550     2.1710     2.6130 ha         1 7CU       0.111000
     37 H15         -7.6110     1.1700     1.9950 ha         1 7CU       0.118000
     38 H16         -7.6970    -0.9110     0.6830 ha         1 7CU       0.120000
     39 H17         -5.6320    -2.0180    -0.0240 ha         1 7CU       0.109000
     40 H18         -0.7280    -0.1390    -3.2000 hn         1 7CU       0.248133
     41 H19          0.5420     0.6650    -2.5580 hn         1 7CU       0.248133
     42 H93          2.5080    -0.8790     6.0510 hn         1 7CU       0.234467
     43 H203         0.4600    -0.9620    -2.4360 hn         1 7CU       0.248133
@<TRIPOS>BOND
     1     1     2 ar  
     2     1     4 ar  
     3     1     8 1   
     4     2     7 ar  
     5     3     8 2   
     6     4     5 ar  
     7     4    13 1   
     8     5     6 ar  
     9     6     7 ar  
    10     6     9 1   
    11     7    24 1   
    12     8    23 1   
    13     9    10 1   
    14     9    25 1   
    15    10    11 1   
    16    10    26 1   
    17    10    27 1   
    18    11    12 1   
    19    11    14 1   
    20    11    28 1   
    21    12    29 1   
    22    12    30 1   
    23    12    42 1   
    24    13    15 1   
    25    13    18 2   
    26    14    31 1   
    27    14    32 1   
    28    14    33 1   
    29    15    16 1   
    30    15    34 1   
    31    16    17 ar  
    32    16    19 ar  
    33    17    18 1   
    34    17    22 ar  
    35    18    35 1   
    36    19    20 ar  
    37    19    36 1   
    38    20    21 ar  
    39    20    37 1   
    40    21    22 ar  
    41    21    38 1   
    42    22    39 1   
    43    23    40 1   
    44    23    41 1   
    45    23    43 1   
@<TRIPOS>SUBSTRUCTURE
     1 7CU         1 TEMP              0 ****  ****    0 ROOT
