@<TRIPOS>MOLECULE
molecule
   29    29     1     0     0
SMALL
bcc


@<TRIPOS>ATOM
      1 C1           0.0000     0.0000     0.0000 c3         1 7CV       0.317900
      2 C2           1.5310     0.0000     0.0000 c3         1 7CV       0.119100
      3 C3           2.0340     0.0000     1.4480 c3         1 7CV       0.148100
      4 C4           1.4500    -1.2140     2.1780 c3         1 7CV       0.095100
      5 C5          -0.0770    -1.1660     2.0940 c3         1 7CV       0.131100
      6 C6          -0.6650    -2.4060     2.7700 c3         1 7CV      -0.085100
      7 O2           2.0080    -1.1690    -0.6710 os         1 7CV      -0.397600
      8 O3           3.4610    -0.0730     1.4580 os         1 7CV      -0.416600
      9 O4           1.8550    -1.1840     3.5490 oh         1 7CV      -0.607800
     10 O5          -0.4760    -1.1370     0.7220 os         1 7CV      -0.414600
     11 C24          2.2030    -0.9930    -2.0760 c3         1 7CV       0.125700
     12 C27          4.0670     0.5690     2.5810 c3         1 7CV       0.130700
     13 O1          -0.4760     1.1950     0.6230 oh         1 7CV      -0.624800
     14 H1          -0.3590    -0.0470    -1.0210 h2         1 7CV       0.069700
     15 H2           1.8910     0.8870    -0.5070 h1         1 7CV       0.057700
     16 H3           1.7090     0.9080     1.9420 h1         1 7CV       0.070700
     17 H4           1.8090    -2.1220     1.7090 h1         1 7CV       0.069700
     18 H5          -0.4360    -0.2730     2.5910 h1         1 7CV       0.062700
     19 H6          -0.4960    -2.3490     3.8390 hc         1 7CV       0.045700
     20 H7          -1.7290    -2.4530     2.5750 hc         1 7CV       0.045700
     21 H8          -0.1860    -3.2940     2.3760 hc         1 7CV       0.045700
     22 H9           2.2240    -2.0190     3.7850 ho         1 7CV       0.407000
     23 H10          2.7800    -1.8230    -2.4660 h1         1 7CV       0.031700
     24 H11          1.2400    -0.9570    -2.5720 h1         1 7CV       0.031700
     25 H12          2.7360    -0.0670    -2.2540 h1         1 7CV       0.031700
     26 H13          4.8210     1.2650     2.2350 h1         1 7CV       0.032033
     27 H14          4.5270    -0.1760     3.2180 h1         1 7CV       0.032033
     28 H15          3.3110     1.1050     3.1420 h1         1 7CV       0.032033
     29 H16         -1.1400     1.5890     0.0820 ho         1 7CV       0.413000
@<TRIPOS>BOND
     1     9     4 1
     2    12     8 1
     3     8     3 1
     4     4     3 1
     5     4     5 1
     6     3     2 1
     7     6     5 1
     8     5    10 1
     9     2     7 1
    10     2     1 1
    11     7    11 1
    12    10     1 1
    13     1    13 1
    14     1    14 1
    15     2    15 1
    16     3    16 1
    17     4    17 1
    18     5    18 1
    19     6    19 1
    20     6    20 1
    21     6    21 1
    22     9    22 1
    23    11    23 1
    24    11    24 1
    25    11    25 1
    26    12    26 1
    27    12    27 1
    28    12    28 1
    29    13    29 1
@<TRIPOS>SUBSTRUCTURE
     1 7CV         1 TEMP              0 ****  ****    0 ROOT
