@<TRIPOS>MOLECULE
7CY
   34    36     1     0     0
SMALL
bcc


@<TRIPOS>ATOM
      1 N1           0.0000     0.0000     0.0000 nb         1 7CY      -0.747000
      2 C2           1.3200     0.0000     0.0000 ca         1 7CY       0.693900
      3 C4           1.4260     0.0020     2.2960 ca         1 7CY       0.277800
      4 C5           0.0220     0.0010     2.3500 ca         1 7CY      -0.252200
      5 C6          -0.6890     0.0000     1.1370 ca         1 7CY       0.593200
      6 C8           0.7460     0.0020     4.3930 cc         1 7CY       0.218700
      7 O2'          3.8730     2.3650     4.1360 oh         1 7CY      -0.548800
      8 C2'          3.5350     1.2360     4.9430 c3         1 7CY       0.154100
      9 C3'          4.7400     0.8080     5.8050 c3         1 7CY       0.173100
     10 O3'          5.9550     1.2650     5.2090 oh         1 7CY      -0.555800
     11 C4'          4.7230    -0.7310     5.8540 c3         1 7CY      -0.079700
     12 C5'          4.5730    -1.2080     7.2990 c3         1 7CY       0.230400
     13 O5'          5.7420    -0.8550     8.0410 oh         1 7CY      -0.592800
     14 C1'          3.2460     0.0000     4.0540 c3         1 7CY      -0.075000
     15 C6'          3.5070    -1.1840     5.0180 c3         1 7CY      -0.030400
     16 N9           1.8540     0.0010     3.5990 na         1 7CY       0.231000
     17 N7          -0.3280     0.0020     3.6580 nd         1 7CY      -0.490100
     18 N3           2.0270     0.0000     1.1110 nb         1 7CY      -0.677000
     19 N6          -2.0730     0.0000     1.1270 nv         1 7CY      -0.482500
     20 H1           1.8410    -0.0000    -0.9500 h5         1 7CY      -0.004900
     21 H2           0.7570     0.0020     5.4760 h5         1 7CY       0.029800
     22 H3           3.4980     3.1440     4.5120 ho         1 7CY       0.386000
     23 H4           2.6800     1.4550     5.5720 h1         1 7CY       0.009700
     24 H5           4.6380     1.2090     6.8060 h1         1 7CY       0.012700
     25 H6           6.3880     1.8620     5.7970 ho         1 7CY       0.390000
     26 H7           5.6350    -1.1230     5.4210 hc         1 7CY       0.065700
     27 H8           4.4470    -2.2830     7.3130 h1         1 7CY      -0.012800
     28 H9           3.7060    -0.7370     7.7470 h1         1 7CY      -0.012800
     29 H10          5.7720    -1.3570     8.8380 ho         1 7CY       0.393000
     30 H11          3.9310    -0.0340     3.2150 h1         1 7CY       0.095700
     31 H12          3.7470    -2.0800     4.4590 hc         1 7CY       0.028700
     32 H13          2.6490    -1.3460     5.6580 hc         1 7CY       0.028700
     33 H14         -2.5800     0.0000     1.9900 hn         1 7CY       0.276300
     34 H15         -2.5660    -0.0000     0.2560 hn         1 7CY       0.276300
@<TRIPOS>BOND
     1     1     2 ar  
     2     1     5 ar  
     3     2    18 ar  
     4     2    20 1   
     5     3     4 ar  
     6     3    16 1   
     7     3    18 ar  
     8     4     5 ar  
     9     4    17 1   
    10     5    19 1   
    11     6    16 1   
    12     6    17 2   
    13     6    21 1   
    14     7     8 1   
    15     7    22 1   
    16     8     9 1   
    17     8    14 1   
    18     8    23 1   
    19     9    10 1   
    20     9    11 1   
    21     9    24 1   
    22    10    25 1   
    23    11    12 1   
    24    11    15 1   
    25    11    26 1   
    26    12    13 1   
    27    12    27 1   
    28    12    28 1   
    29    13    29 1   
    30    14    15 1   
    31    14    16 1   
    32    14    30 1   
    33    15    31 1   
    34    15    32 1   
    35    19    33 1   
    36    19    34 1   
@<TRIPOS>SUBSTRUCTURE
     1 7CY         1 TEMP              0 ****  ****    0 ROOT
