@<TRIPOS>MOLECULE
molecule
   15    15     1     0     0
SMALL
bcc


@<TRIPOS>ATOM
      1 SAH          0.0000     0.0000     0.0000 s          1 7CZ      -0.522400
      2 CAF          1.7130     0.0000     0.0000 cs         1 7CZ       0.267800
      3 CAG          2.3280     0.0000     1.2640 cc         1 7CZ      -0.112200
      4 CAD          3.6710     0.0000     1.5610 cd         1 7CZ      -0.087000
      5 CAC          4.7580    -0.0010     0.6870 cd         1 7CZ      -0.110000
      6 CAB          4.7630    -0.0010    -0.6910 cc         1 7CZ      -0.088000
      7 CAA          3.6820    -0.0010    -1.5700 cc         1 7CZ      -0.127000
      8 CAE          2.3320    -0.0060    -1.2760 cd         1 7CZ       0.125900
      9 OAI          1.4950    -0.0060    -2.3410 oh         1 7CZ      -0.496100
     10 H1           1.6570    -0.0000     2.1150 ha         1 7CZ       0.165000
     11 H2           3.9180     0.0020     2.6160 ha         1 7CZ       0.136000
     12 H3           5.7340    -0.0020     1.1580 ha         1 7CZ       0.133000
     13 H4           5.7430    -0.0010    -1.1540 ha         1 7CZ       0.135000
     14 H5           3.9340     0.0020    -2.6240 ha         1 7CZ       0.146000
     15 H6           1.3610    -0.8910    -2.6350 ho         1 7CZ       0.435000
@<TRIPOS>BOND
     1     6     7 1   
     2     6     5 2   
     3     7     8 2   
     4     5     4 1   
     5     9     8 1   
     6     8     2 1   
     7     4     3 2   
     8     2     3 1   
     9     2     1 2   
    10     3    10 1   
    11     4    11 1   
    12     5    12 1   
    13     6    13 1   
    14     7    14 1   
    15     9    15 1   
@<TRIPOS>SUBSTRUCTURE
     1 7CZ         1 TEMP              0 ****  ****    0 ROOT
