@<TRIPOS>MOLECULE
molecule
   37    39     1     0     0
SMALL
bcc


@<TRIPOS>ATOM
      1 CAN          0.0000     0.0000     0.0000 ca         1 7D0      -0.239000
      2 CAP          1.3840     0.0000     0.0000 ca         1 7D0       0.192900
      3 FAE          2.0580    -0.0000    -1.1710 f          1 7D0      -0.134400
      4 CAO          2.0770     0.0000     1.1980 ca         1 7D0      -0.250000
      5 CAS          1.3870    -0.0000     2.3980 ca         1 7D0       0.192900
      6 FAF          2.0660     0.0010     3.5670 f          1 7D0      -0.134400
      7 CAR          0.0040     0.0010     2.4020 ca         1 7D0      -0.239000
      8 CAM         -0.6920     0.0070     1.2020 ca         1 7D0       0.212100
      9 OAL         -2.0520     0.0070     1.2050 os         1 7D0      -0.315900
     10 CAD         -2.6980    -0.1110     2.4720 c3         1 7D0       0.180100
     11 CAH         -4.0380     0.6070     2.4130 cx         1 7D0      -0.130700
     12 CAI         -4.7630     0.5810     1.0580 cx         1 7D0      -0.103400
     13 CAG         -5.3300    -0.1770     2.2510 cx         1 7D0      -0.104000
     14 CAQ         -6.5680     0.4420     2.9040 c3         1 7D0       0.184400
     15 OAT         -7.7000    -0.3980     2.6700 oh         1 7D0      -0.609800
     16 CAA         -5.3100    -1.6900     2.2750 c3         1 7D0       0.184100
     17 OAU         -5.7520    -2.1380     3.5580 oh         1 7D0      -0.590800
     18 CAB         -3.9330    -2.2600     2.0070 c3         1 7D0       0.110100
     19 OAJ         -3.9400    -3.6530     2.3280 oh         1 7D0      -0.600800
     20 CAC         -2.8490    -1.5800     2.8120 c3         1 7D0       0.126100
     21 OAK         -1.6060    -2.2390     2.5630 oh         1 7D0      -0.602800
     22 H1          -0.5420     0.0040    -0.9380 ha         1 7D0       0.156000
     23 H2           3.1610     0.0000     1.1970 ha         1 7D0       0.158000
     24 H3          -0.5360     0.0030     3.3420 ha         1 7D0       0.156000
     25 H4          -2.0840     0.3600     3.2300 h1         1 7D0       0.065700
     26 H5          -4.1320     1.5490     2.9390 hc         1 7D0       0.092700
     27 H6          -5.2860     1.4910     0.7890 hc         1 7D0       0.086700
     28 H7          -4.3010    -0.0300     0.2920 hc         1 7D0       0.086700
     29 H8          -6.4040     0.5390     3.9700 h1         1 7D0       0.029200
     30 H9          -6.7510     1.4210     2.4760 h1         1 7D0       0.029200
     31 H10         -8.4880     0.0620     2.9060 ho         1 7D0       0.405000
     32 H11         -5.9910    -2.0590     1.5170 h1         1 7D0       0.052700
     33 H12         -6.3320    -2.8740     3.4520 ho         1 7D0       0.413000
     34 H13         -3.7080    -2.1420     0.9540 h1         1 7D0       0.052700
     35 H14         -3.9170    -4.1590     1.5320 ho         1 7D0       0.407000
     36 H15         -3.0910    -1.6690     3.8640 h1         1 7D0       0.066700
     37 H16         -1.4620    -2.8980     3.2210 ho         1 7D0       0.416000
@<TRIPOS>BOND
     1     6     5 1   
     2     5     4 ar  
     3     5     7 ar  
     4     4     2 ar  
     5     7     8 ar  
     6     2     3 1   
     7     2     1 ar  
     8     8     1 ar  
     9     8     9 1   
    10     9    10 1   
    11    12    11 1   
    12    12    13 1   
    13    21    20 1   
    14    18    19 1   
    15    18    20 1   
    16    18    16 1   
    17    10    20 1   
    18    10    11 1   
    19    11    13 1   
    20    16    13 1   
    21    16    17 1   
    22    13    14 1   
    23    14    15 1   
    24     1    22 1   
    25     4    23 1   
    26     7    24 1   
    27    10    25 1   
    28    11    26 1   
    29    12    27 1   
    30    12    28 1   
    31    14    29 1   
    32    14    30 1   
    33    15    31 1   
    34    16    32 1   
    35    17    33 1   
    36    18    34 1   
    37    19    35 1   
    38    20    36 1   
    39    21    37 1   
@<TRIPOS>SUBSTRUCTURE
     1 7D0         1 TEMP              0 ****  ****    0 ROOT
