@<TRIPOS>MOLECULE
molecule
   22    22     1     0     0
SMALL
bcc


@<TRIPOS>ATOM
      1 O4           0.0000     0.0000     0.0000 oh         1 7D1      -0.604800
      2 C4           1.4290     0.0000     0.0000 c3         1 7D1       0.114100
      3 C5           1.9400     0.0000     1.4430 c3         1 7D1       0.146100
      4 C6           1.4840    -1.2800     2.1460 c3         1 7D1       0.151400
      5 O6           1.8610    -1.2290     3.5230 oh         1 7D1      -0.600800
      6 C3           1.9410     1.2540    -0.7150 c3         1 7D1       0.130100
      7 O3           1.5290     1.2270    -2.0820 oh         1 7D1      -0.605800
      8 C2           3.4710     1.2840    -0.6400 c3         1 7D1      -0.141400
      9 C1           3.9030     1.2330     0.8280 c3         1 7D1       0.136400
     10 O5           3.3680     0.0580     1.4410 os         1 7D1      -0.403600
     11 H1          -0.3140    -0.6050    -0.6510 ho         1 7D1       0.412000
     12 H2           1.7960    -0.8810    -0.5120 h1         1 7D1       0.056700
     13 H3           1.5460     0.8640     1.9640 h1         1 7D1       0.060700
     14 H4           0.4070    -1.3700     2.0700 h1         1 7D1       0.034200
     15 H5           1.9510    -2.1370     1.6750 h1         1 7D1       0.034200
     16 H6           1.5020    -1.9740     3.9750 ho         1 7D1       0.402000
     17 H7           1.5390     2.1350    -0.2280 h1         1 7D1       0.045700
     18 H8           1.2520     2.0890    -2.3440 ho         1 7D1       0.407000
     19 H9           3.8360     2.1980    -1.0920 hc         1 7D1       0.060700
     20 H10          3.8740     0.4270    -1.1650 hc         1 7D1       0.060700
     21 H11          3.5300     2.1100     1.3440 h1         1 7D1       0.051700
     22 H12          4.9840     1.2080     0.8840 h1         1 7D1       0.051700
@<TRIPOS>BOND
     1     4     5 1   
     2     4     3 1   
     3     3    10 1   
     4     3     2 1   
     5    10     9 1   
     6     9     8 1   
     7     1     2 1   
     8     2     6 1   
     9     6     8 1   
    10     6     7 1   
    11     1    11 1   
    12     2    12 1   
    13     3    13 1   
    14     4    14 1   
    15     4    15 1   
    16     5    16 1   
    17     6    17 1   
    18     7    18 1   
    19     8    19 1   
    20     8    20 1   
    21     9    21 1   
    22     9    22 1   
@<TRIPOS>SUBSTRUCTURE
     1 7D1         1 TEMP              0 ****  ****    0 ROOT
