@<TRIPOS>MOLECULE
molecule
   27    28     1     0     0
SMALL
bcc


@<TRIPOS>ATOM
      1 OAJ          0.0000     0.0000     0.0000 oh         1 7D2      -0.591800
      2 CAL          1.4290     0.0000     0.0000 c3         1 7D2       0.187100
      3 CAI          1.9170     0.0000     1.4330 c3         1 7D2       0.126100
      4 OAA          1.1890    -0.9860     2.1690 oh         1 7D2      -0.597800
      5 CAG          1.7420     1.3410     2.1130 c3         1 7D2       0.145100
      6 OAD          2.1440     1.2210     3.4790 oh         1 7D2      -0.593800
      7 CAM          2.5530     2.4410     1.4600 c3         1 7D2       0.171100
      8 OAE          3.9290     2.2670     1.8030 oh         1 7D2      -0.592800
      9 CAB          2.4170     2.4360    -0.0550 cx         1 7D2      -0.146700
     10 CAH          3.4010     1.5400    -0.8240 cx         1 7D2      -0.105400
     11 CAC          1.9180     1.2000    -0.7840 cx         1 7D2      -0.107000
     12 CAF          1.1590     1.4580    -2.0870 c3         1 7D2       0.184400
     13 OAK          0.7680     0.2130    -2.6670 oh         1 7D2      -0.609800
     14 H1          -0.3140    -0.8810    -0.1210 ho         1 7D2       0.412000
     15 H2           1.7820    -0.9010    -0.4870 h1         1 7D2       0.050700
     16 H3           2.9690    -0.2580     1.4410 h1         1 7D2       0.054700
     17 H4           1.7630    -1.7000     2.3900 ho         1 7D2       0.404000
     18 H5           0.6950     1.6140     2.0760 h1         1 7D2       0.060700
     19 H6           1.4570     1.5440     4.0380 ho         1 7D2       0.402000
     20 H7           2.2100     3.3970     1.8380 h1         1 7D2       0.037700
     21 H8           4.2640     3.0680     2.1710 ho         1 7D2       0.403000
     22 H9           2.2090     3.3780    -0.5470 hc         1 7D2       0.081700
     23 H10          3.7640     1.9420    -1.7620 hc         1 7D2       0.085200
     24 H11          4.0410     0.9150    -0.2120 hc         1 7D2       0.085200
     25 H12          1.8000     1.9930    -2.7780 h1         1 7D2       0.026700
     26 H13          0.2770     2.0520    -1.8800 h1         1 7D2       0.026700
     27 H14          0.4600     0.3580    -3.5460 ho         1 7D2       0.402000
@<TRIPOS>BOND
     1     1     2 1   
     2    13    12 1   
     3    12    11 1   
     4    11     2 1   
     5    11     9 1   
     6    11    10 1   
     7     2     3 1   
     8     9     7 1   
     9     9    10 1   
    10     5     7 1   
    11     5     3 1   
    12     5     6 1   
    13     7     8 1   
    14     4     3 1   
    15     1    14 1   
    16     2    15 1   
    17     3    16 1   
    18     4    17 1   
    19     5    18 1   
    20     6    19 1   
    21     7    20 1   
    22     8    21 1   
    23     9    22 1   
    24    10    23 1   
    25    10    24 1   
    26    12    25 1   
    27    12    26 1   
    28    13    27 1   
@<TRIPOS>SUBSTRUCTURE
     1 7D2         1 TEMP              0 ****  ****    0 ROOT
