@<TRIPOS>MOLECULE
molecule
   38    40     1     0     0
SMALL
bcc


@<TRIPOS>ATOM
      1 C01          0.0000     0.0000     0.0000 ca         1 7D3       0.652900
      2 N02          1.3170     0.0000     0.0000 nb         1 7D3      -0.794000
      3 C03          1.9940     0.0000     1.1440 ca         1 7D3       0.458800
      4 C04          1.2850     0.0010     2.3570 ca         1 7D3      -0.193200
      5 C05         -0.1200     0.0010     2.3050 ca         1 7D3       0.714200
      6 N06         -0.7090     0.0000     1.1140 nb         1 7D3      -0.823000
      7 N07         -0.8710     0.0020     3.4670 nv         1 7D3      -1.024500
      8 N08          2.2010     0.0020     3.3550 nc         1 7D3      -0.621100
      9 C09          3.3990     0.0010     2.8430 cd         1 7D3       0.434700
     10 N10          3.3240     0.0000     1.4820 na         1 7D3      -0.242000
     11 C11          4.4550    -0.0010     0.5520 cy         1 7D3       0.223800
     12 C12          4.8950     1.4050     0.1030 cy         1 7D3      -0.155700
     13 C13          6.3340     0.9000     0.3160 cy         1 7D3       0.146100
     14 O14          5.7410    -0.0780     1.1980 oq         1 7D3      -0.396600
     15 C15          7.2440     1.9050     1.0250 c3         1 7D3       0.233400
     16 O16          8.5770     1.3910     1.0690 os         1 7D3      -0.594200
     17 P17          9.8020     2.1880     1.7460 p5         1 7D3       1.420800
     18 O18          9.5420     2.3300     3.3280 o          1 7D3      -0.855000
     19 O19          9.9090     3.5340     1.1390 o          1 7D3      -0.855000
     20 O20         11.1720     1.3780     1.4980 os         1 7D3      -0.713800
     21 P21         12.7320     1.7520     1.6290 p5         1 7D3       1.311900
     22 O22         12.9530     3.1270     1.1280 o          1 7D3      -0.881500
     23 O23         13.1750     1.6660     3.1740 o          1 7D3      -0.881500
     24 O24         13.6070     0.7170     0.7610 o          1 7D3      -0.881500
     25 C29          4.5570     1.7230    -1.3550 c3         1 7D3       0.140400
     26 O30          4.8970     3.0820    -1.6370 oh         1 7D3      -0.588800
     27 H1          -0.5210    -0.0010    -0.9500 h5         1 7D3       0.032100
     28 H2          -0.5600     0.5200     4.2640 hn         1 7D3       0.428300
     29 H3          -1.7280    -0.5140     3.5090 hn         1 7D3       0.428300
     30 H4           4.3190    -0.0020     3.4150 h5         1 7D3       0.105800
     31 H5           4.3570    -0.6950    -0.2750 h2         1 7D3       0.083700
     32 H6           4.6120     2.1780     0.8080 hc         1 7D3       0.103700
     33 H7           6.7610     0.4580    -0.5760 h1         1 7D3       0.075700
     34 H8           7.2370     2.8430     0.4840 h1         1 7D3       0.041200
     35 H9           6.8860     2.0670     2.0340 h1         1 7D3       0.041200
     36 H13          5.1210     1.0670    -2.0070 h1         1 7D3       0.020700
     37 H14          3.4970     1.5740    -1.5210 h1         1 7D3       0.020700
     38 H15          4.4330     3.3690    -2.4060 ho         1 7D3       0.382000
@<TRIPOS>BOND
     1    26    25 1   
     2    25    12 1   
     3    13    12 1   
     4    13    14 1   
     5    13    15 1   
     6    22    21 1   
     7    12    11 1   
     8    14    11 1   
     9    15    16 1   
    10    11    10 1   
    11    16    17 1   
    12    19    17 1   
    13    23    21 1   
    14    21    24 1   
    15    21    20 1   
    16    17    20 1   
    17    17    18 1   
    18    10     3 1   
    19    10     9 1   
    20     2     3 ar  
    21     2     1 ar  
    22     3     4 ar  
    23     9     8 2   
    24     1     6 ar  
    25     4     8 1   
    26     4     5 ar  
    27     6     5 ar  
    28     5     7 1   
    29     1    27 1   
    30     7    28 1   
    31     7    29 1   
    32     9    30 1   
    33    11    31 1   
    34    12    32 1   
    35    13    33 1   
    36    15    34 1   
    37    15    35 1   
    38    25    36 1   
    39    25    37 1   
    40    26    38 1   
@<TRIPOS>SUBSTRUCTURE
     1 7D3         1 TEMP              0 ****  ****    0 ROOT
