@<TRIPOS>MOLECULE
molecule
   42    44     1     0     0
SMALL
bcc


@<TRIPOS>ATOM
      1 C01          0.0000     0.0000     0.0000 ca         1 7D4       0.607900
      2 N02          1.3170     0.0000     0.0000 nb         1 7D4      -0.815000
      3 C03          1.9930     0.0000     1.1440 ca         1 7D4       0.469800
      4 C04          1.2840    -0.0010     2.3570 ca         1 7D4      -0.216200
      5 C05         -0.1210    -0.0010     2.3040 ca         1 7D4       0.678200
      6 N06         -0.7100    -0.0010     1.1130 nb         1 7D4      -0.825000
      7 N07         -0.8730    -0.0030     3.4660 nv         1 7D4      -1.022500
      8 N08          2.1990    -0.0010     3.3550 nc         1 7D4      -0.624100
      9 C09          3.3970    -0.0000     2.8450 cd         1 7D4       0.400700
     10 N10          3.3220     0.0000     1.4830 na         1 7D4      -0.249000
     11 C11          4.4540     0.0010     0.5530 cy         1 7D4       0.230800
     12 C12          4.8930     1.4080     0.1080 cy         1 7D4      -0.153700
     13 C13          6.3340     0.9030     0.3200 cy         1 7D4       0.143100
     14 O14          5.7410    -0.0750     1.2010 oq         1 7D4      -0.393600
     15 C15          7.2440     1.9060     1.0320 c3         1 7D4       0.235400
     16 O16          8.5520     1.3470     1.1690 os         1 7D4      -0.596200
     17 P17          9.7700     2.1290     1.8730 p5         1 7D4       1.437800
     18 O18          9.4350     2.3520     3.4320 o          1 7D4      -0.851500
     19 O19          9.9600     3.4410     1.2170 o          1 7D4      -0.851500
     20 O20         11.1180     1.2600     1.7340 os         1 7D4      -0.725800
     21 P21         12.6830     1.5830     1.9310 p5         1 7D4       1.514800
     22 O22         12.9830     2.9250     1.3830 o          1 7D4      -0.870000
     23 O23         13.0440     1.5520     3.5000 o          1 7D4      -0.870000
     24 O24         13.5620     0.4780     1.1570 os         1 7D4      -0.736800
     25 P25         15.1050     0.3900     0.7070 p5         1 7D4       1.343900
     26 O26         15.9690     0.8290     1.8250 o          1 7D4      -0.839167
     27 O27         15.4640    -1.1290     0.3150 o          1 7D4      -0.839167
     28 O28         15.3490     1.3460    -0.5660 o          1 7D4      -0.839167
     29 C29          4.5570     1.7270    -1.3510 c3         1 7D4       0.139400
     30 O30          4.8960     3.0860    -1.6310 oh         1 7D4      -0.593800
     31 H1          -0.5210     0.0000    -0.9500 h5         1 7D4       0.019100
     32 H2          -0.4710     0.3240     4.3230 hn         1 7D4       0.420800
     33 H3          -1.8160    -0.3380     3.4510 hn         1 7D4       0.420800
     34 H4           4.3170    -0.0010     3.4170 h5         1 7D4       0.098800
     35 H5           4.3580    -0.6920    -0.2740 h2         1 7D4       0.078700
     36 H6           4.6100     2.1800     0.8130 hc         1 7D4       0.104700
     37 H7           6.7610     0.4620    -0.5730 h1         1 7D4       0.070700
     38 H8           6.8410     2.1250     2.0140 h1         1 7D4       0.039700
     39 H9           7.3000     2.8190     0.4520 h1         1 7D4       0.039700
     40 H14          5.1210     1.0710    -2.0030 h1         1 7D4       0.018700
     41 H15          3.4970     1.5770    -1.5180 h1         1 7D4       0.018700
     42 H16          4.7300     3.2700    -2.5410 ho         1 7D4       0.381000
@<TRIPOS>BOND
     1    26    25 1
     2    28    25 1
     3    25    27 1
     4    25    24 1
     5    30    29 1
     6    24    21 1
     7    29    12 1
     8    13    15 1
     9    13    14 1
    10    13    12 1
    11    15    16 1
    12    14    11 1
    13    12    11 1
    14    11    10 1
    15    21    22 1
    16    21    23 1
    17    21    20 1
    18    19    17 1
    19    16    17 1
    20    20    17 1
    21    17    18 1
    22    10     3 1
    23    10     9 1
    24     2     3 ar
    25     2     1 ar
    26     3     4 ar
    27     9     8 2
    28     1     6 ar
    29     4     8 1
    30     4     5 ar
    31     6     5 ar
    32     5     7 1
    33     1    31 1
    34     7    32 1
    35     7    33 1
    36     9    34 1
    37    11    35 1
    38    12    36 1
    39    13    37 1
    40    15    38 1
    41    15    39 1
    42    29    40 1
    43    29    41 1
    44    30    42 1
@<TRIPOS>SUBSTRUCTURE
     1 7D4         1 TEMP              0 ****  ****    0 ROOT
