@<TRIPOS>MOLECULE
molecule
   34    36     1     0     0
SMALL
bcc


@<TRIPOS>ATOM
      1 C01          0.0000     0.0000     0.0000 ca         1 7D5       0.712900
      2 N02          1.3160     0.0000     0.0000 nb         1 7D5      -0.784000
      3 C03          1.9930     0.0000     1.1430 ca         1 7D5       0.461800
      4 C04          1.2830     0.0010     2.3570 ca         1 7D5      -0.203200
      5 C05         -0.1210     0.0000     2.3050 ca         1 7D5       0.774200
      6 N06         -0.7100     0.0010     1.1140 nb         1 7D5      -0.854000
      7 N07         -0.8720    -0.0000     3.4670 nv         1 7D5      -0.997500
      8 N08          2.2010     0.0010     3.3550 nc         1 7D5      -0.625100
      9 C09          3.3970     0.0010     2.8430 cd         1 7D5       0.469700
     10 N10          3.3220     0.0010     1.4830 na         1 7D5      -0.231000
     11 C11          4.4540    -0.0010     0.5520 cy         1 7D5       0.213800
     12 C12          4.8930     1.4060     0.1050 cy         1 7D5      -0.155700
     13 C13          6.3330     0.9010     0.3170 cy         1 7D5       0.149100
     14 O14          5.7400    -0.0780     1.1990 oq         1 7D5      -0.394600
     15 C15          7.2450     1.9030     1.0280 c3         1 7D5       0.222400
     16 O16          8.5530     1.3440     1.1640 os         1 7D5      -0.569200
     17 P17          9.7720     2.1270     1.8680 p5         1 7D5       1.171900
     18 O18          9.3690     2.5450     3.2290 o          1 7D5      -0.904833
     19 O19         11.0510     1.1530     1.9620 o          1 7D5      -0.904833
     20 O20         10.1500     3.4270     0.9960 o          1 7D5      -0.904833
     21 C29          4.5560     1.7240    -1.3540 c3         1 7D5       0.141400
     22 O30          4.8970     3.0840    -1.6360 oh         1 7D5      -0.586800
     23 H1          -0.5210     0.0010    -0.9500 h5         1 7D5       0.045100
     24 H2          -0.4160    -0.0000     4.3580 hn         1 7D5       0.441800
     25 H3          -1.8710    -0.0000     3.4170 hn         1 7D5       0.441800
     26 H4           4.3170     0.0000     3.4150 h5         1 7D5       0.114800
     27 H5           4.3560    -0.6940    -0.2750 h2         1 7D5       0.086700
     28 H6           4.6110     2.1790     0.8100 hc         1 7D5       0.104700
     29 H7           6.7590     0.4600    -0.5760 h1         1 7D5       0.071700
     30 H8           7.3010     2.8160     0.4470 h1         1 7D5       0.034700
     31 H9           6.8420     2.1240     2.0090 h1         1 7D5       0.034700
     32 H12          5.1200     1.0680    -2.0060 h1         1 7D5       0.018700
     33 H13          3.4960     1.5750    -1.5200 h1         1 7D5       0.018700
     34 H14          4.4680     3.3570    -2.4300 ho         1 7D5       0.384000
@<TRIPOS>BOND
     1    18    17 1
     2    20    17 1
     3    22    21 1
     4    17    16 1
     5    17    19 1
     6    16    15 1
     7    21    12 1
     8    13    15 1
     9    13    14 1
    10    13    12 1
    11    14    11 1
    12    12    11 1
    13    11    10 1
    14    10     3 1
    15    10     9 1
    16     2     3 ar
    17     2     1 ar
    18     3     4 ar
    19     9     8 2
    20     1     6 ar
    21     4     8 1
    22     4     5 ar
    23     6     5 ar
    24     5     7 1
    25     1    23 1
    26     7    24 1
    27     7    25 1
    28     9    26 1
    29    11    27 1
    30    12    28 1
    31    13    29 1
    32    15    30 1
    33    15    31 1
    34    21    32 1
    35    21    33 1
    36    22    34 1
@<TRIPOS>SUBSTRUCTURE
     1 7D5         1 TEMP              0 ****  ****    0 ROOT
