@<TRIPOS>MOLECULE
7D7
   31    33     1     0     0
SMALL
bcc


@<TRIPOS>ATOM
      1 O01          0.0000     0.0000     0.0000 oq         1 7D7      -0.386600
      2 C02          1.4330     0.0000     0.0000 cy         1 7D7       0.174100
      3 C03          2.0410    -1.2740    -0.5900 c3         1 7D7       0.217400
      4 O04          2.1120    -1.1530    -2.0120 oh         1 7D7      -0.589800
      5 C05          1.3910     0.0000     1.5340 cy         1 7D7      -0.158700
      6 C06          2.4320     0.9020     2.1990 c3         1 7D7       0.235400
      7 O07          3.6700     0.1970     2.3140 oh         1 7D7      -0.592800
      8 C08          0.0410     0.6760     1.2630 cy         1 7D7       0.154800
      9 N09         -1.0160     0.2530     2.1840 na         1 7D7       0.199000
     10 C10         -1.9080    -0.7580     1.9780 cc         1 7D7       0.261700
     11 N11         -2.7070    -0.8600     3.0010 nd         1 7D7      -0.496100
     12 C12         -2.3800     0.0750     3.9240 ca         1 7D7      -0.226200
     13 C13         -2.8770     0.4300     5.1900 ca         1 7D7       0.592200
     14 N14         -3.9470    -0.2480     5.7470 nv         1 7D7      -0.512500
     15 N15         -2.2950     1.4330     5.8400 nb         1 7D7      -0.725000
     16 C16         -1.2730     2.0870     5.3170 ca         1 7D7       0.681900
     17 N17         -0.7750     1.7890     4.1350 nb         1 7D7      -0.680000
     18 C18         -1.2880     0.7970     3.4140 ca         1 7D7       0.259800
     19 H1           1.8490     0.9150    -0.4040 h1         1 7D7       0.051700
     20 H2           3.0380    -1.4180    -0.1900 h1         1 7D7       0.002200
     21 H3           1.4220    -2.1240    -0.3310 h1         1 7D7       0.002200
     22 H4           2.4610    -1.9480    -2.3790 ho         1 7D7       0.394000
     23 H5           1.2950    -0.9920     1.9600 hc         1 7D7       0.076700
     24 H6           2.5780     1.7910     1.5970 h1         1 7D7       0.005700
     25 H7           2.0860     1.1860     3.1860 h1         1 7D7       0.005700
     26 H8           4.0500     0.3650     3.1600 ho         1 7D7       0.396000
     27 H9           0.1290     1.7500     1.1560 h2         1 7D7       0.064700
     28 H10         -1.9460    -1.3830     1.0940 h5         1 7D7       0.043800
     29 H11         -4.6940    -0.5690     5.1640 hn         1 7D7       0.277300
     30 H12         -3.9880    -0.3900     6.7370 hn         1 7D7       0.277300
     31 H13         -0.8290     2.8980     5.8810 h5         1 7D7      -0.004900
@<TRIPOS>BOND
     1     1     2 1   
     2     1     8 1   
     3     2     3 1   
     4     2     5 1   
     5     2    19 1   
     6     3     4 1   
     7     3    20 1   
     8     3    21 1   
     9     4    22 1   
    10     5     6 1   
    11     5     8 1   
    12     5    23 1   
    13     6     7 1   
    14     6    24 1   
    15     6    25 1   
    16     7    26 1   
    17     8     9 1   
    18     8    27 1   
    19     9    10 1   
    20     9    18 1   
    21    10    11 2   
    22    10    28 1   
    23    11    12 1   
    24    12    13 ar  
    25    12    18 ar  
    26    13    14 1   
    27    13    15 ar  
    28    14    29 1   
    29    14    30 1   
    30    15    16 ar  
    31    16    17 ar  
    32    16    31 1   
    33    17    18 ar  
@<TRIPOS>SUBSTRUCTURE
     1 7D7         1 TEMP              0 ****  ****    0 ROOT
