@<TRIPOS>MOLECULE
molecule
   31    33     1     0     0
SMALL
bcc


@<TRIPOS>ATOM
      1 O01          0.0000     0.0000     0.0000 oq         1 7D7      -0.393600
      2 C02          1.4330     0.0000     0.0000 cy         1 7D7       0.130100
      3 C03          2.0410    -1.2740    -0.5900 c3         1 7D7       0.144400
      4 O04          2.1120    -1.1530    -2.0120 oh         1 7D7      -0.606800
      5 C05          1.3910     0.0000     1.5340 cy         1 7D7      -0.154700
      6 C06          2.4320     0.9020     2.1990 c3         1 7D7       0.145400
      7 O07          3.6700     0.1970     2.3140 oh         1 7D7      -0.609800
      8 C08          0.0410     0.6760     1.2630 cy         1 7D7       0.244800
      9 N09         -1.0160     0.2530     2.1840 na         1 7D7      -0.257000
     10 C10         -1.9080    -0.7580     1.9780 cc         1 7D7       0.438700
     11 N11         -2.7070    -0.8600     3.0010 nd         1 7D7      -0.585100
     12 C12         -2.3800     0.0750     3.9240 ca         1 7D7      -0.192200
     13 C13         -2.8770     0.4300     5.1900 ca         1 7D7       0.785200
     14 N14         -3.9470    -0.2480     5.7470 nv         1 7D7      -1.004500
     15 N15         -2.2950     1.4330     5.8400 nb         1 7D7      -0.818000
     16 C16         -1.2730     2.0870     5.3170 ca         1 7D7       0.731900
     17 N17         -0.7750     1.7890     4.1350 nb         1 7D7      -0.795000
     18 C18         -1.2880     0.7970     3.4140 ca         1 7D7       0.462800
     19 H1           1.8490     0.9150    -0.4040 h1         1 7D7       0.086700
     20 H2           3.0380    -1.4180    -0.1900 h1         1 7D7       0.041200
     21 H3           1.4220    -2.1240    -0.3310 h1         1 7D7       0.041200
     22 H4           2.4610    -1.9480    -2.3790 ho         1 7D7       0.407000
     23 H5           1.2950    -0.9920     1.9600 hc         1 7D7       0.104700
     24 H6           2.5780     1.7910     1.5970 h1         1 7D7       0.045200
     25 H7           2.0860     1.1860     3.1860 h1         1 7D7       0.045200
     26 H8           4.0500     0.3650     3.1600 ho         1 7D7       0.409000
     27 H9           0.1290     1.7500     1.1560 h2         1 7D7       0.103700
     28 H10         -1.9460    -1.3830     1.0940 h5         1 7D7       0.092800
     29 H11         -4.6940    -0.5690     5.1640 hn         1 7D7       0.449300
     30 H12         -3.9880    -0.3900     6.7370 hn         1 7D7       0.449300
     31 H13         -0.8290     2.8980     5.8810 h5         1 7D7       0.061100
@<TRIPOS>BOND
     1     7     6 1
     2     6     5 1
     3     2     3 1
     4     2     1 1
     5     2     5 1
     6     3     4 1
     7     1     8 1
     8     5     8 1
     9     8     9 1
    10     9    18 1
    11     9    10 1
    12    17    18 ar
    13    17    16 ar
    14    18    12 ar
    15    16    15 ar
    16    10    11 2
    17    12    11 1
    18    12    13 ar
    19    15    13 ar
    20    13    14 1
    21     2    19 1
    22     3    20 1
    23     3    21 1
    24     4    22 1
    25     5    23 1
    26     6    24 1
    27     6    25 1
    28     7    26 1
    29     8    27 1
    30    10    28 1
    31    14    29 1
    32    14    30 1
    33    16    31 1
@<TRIPOS>SUBSTRUCTURE
     1 7D7         1 TEMP              0 ****  ****    0 ROOT
