@<TRIPOS>MOLECULE
molecule
   25    26     1     0     0
SMALL
bcc


@<TRIPOS>ATOM
      1 OAJ          0.0000     0.0000     0.0000 oh         1 7D8      -0.589800
      2 CAA          1.4300     0.0000     0.0000 c3         1 7D8       0.189100
      3 CAB          1.9340     0.0000     1.4430 c3         1 7D8       0.097100
      4 OAK          1.3520    -1.0930     2.1540 oh         1 7D8      -0.587800
      5 CAC          1.5250     1.3210     2.1040 c3         1 7D8       0.166600
      6 FAF          1.6810     1.2210     3.4900 f          1 7D8      -0.243300
      7 CAD          2.4220     2.4350     1.5640 c3         1 7D8      -0.075400
      8 CAG          2.3680     2.4600     0.0380 cx         1 7D8      -0.116700
      9 CAI          3.4090     1.5950    -0.6880 cx         1 7D8      -0.131400
     10 CAH          1.9310     1.2290    -0.7400 cx         1 7D8      -0.110000
     11 CAL          1.2200     1.5110    -2.0650 c3         1 7D8       0.184400
     12 OAM          0.8690     0.2760    -2.6900 oh         1 7D8      -0.610800
     13 H1          -0.3140    -0.8780    -0.1400 ho         1 7D8       0.414000
     14 H2           1.7910    -0.8890    -0.5020 h1         1 7D8       0.054700
     15 H3           3.0140    -0.0890     1.4490 h1         1 7D8       0.041700
     16 H4           2.0320    -1.6810     2.4390 ho         1 7D8       0.404000
     17 H5           0.4910     1.5400     1.8650 h1         1 7D8       0.089700
     18 H6           2.0790     3.3880     1.9490 hc         1 7D8       0.059700
     19 H7           3.4420     2.2590     1.8830 hc         1 7D8       0.059700
     20 H8           2.1740     3.4090    -0.4480 hc         1 7D8       0.085700
     21 H9           4.0240     0.9700    -0.0520 hc         1 7D8       0.078200
     22 H10          3.8190     2.0200    -1.5970 hc         1 7D8       0.078200
     23 H11          1.8800     2.0710    -2.7170 h1         1 7D8       0.028700
     24 H12          0.3230     2.0880    -1.8770 h1         1 7D8       0.028700
     25 H13          0.5890     0.4390    -3.5750 ho         1 7D8       0.404000
@<TRIPOS>BOND
     1     4     3 1   
     2     9    10 1   
     3     9     8 1   
     4     3     2 1   
     5     3     5 1   
     6     6     5 1   
     7     2    10 1   
     8     2     1 1   
     9    10     8 1   
    10    10    11 1   
    11     5     7 1   
    12     8     7 1   
    13    11    12 1   
    14     1    13 1   
    15     2    14 1   
    16     3    15 1   
    17     4    16 1   
    18     5    17 1   
    19     7    18 1   
    20     7    19 1   
    21     8    20 1   
    22     9    21 1   
    23     9    22 1   
    24    11    23 1   
    25    11    24 1   
    26    12    25 1   
@<TRIPOS>SUBSTRUCTURE
     1 7D8         1 TEMP              0 ****  ****    0 ROOT
