@<TRIPOS>MOLECULE
molecule
   40    42     1     0     0
SMALL
bcc


@<TRIPOS>ATOM
      1 O1B          0.0000     0.0000     0.0000 o          1 7DD      -0.908500
      2 PB           1.6100     0.0000     0.0000 p5         1 7DD       1.312900
      3 O2B          2.1470     0.0000     1.5180 o          1 7DD      -0.908500
      4 O3B          2.1040    -1.2090    -0.6980 o          1 7DD      -0.908500
      5 O3A          2.1470     1.3140    -0.7590 os         1 7DD      -0.709800
      6 PA           3.5460     1.7150    -1.4490 p5         1 7DD       1.428800
      7 O1A          3.6290     1.0590    -2.9160 o          1 7DD      -0.862500
      8 O2A          4.6650     1.2150    -0.6200 o          1 7DD      -0.862500
      9 O5'          3.6430     3.3180    -1.5710 os         1 7DD      -0.582200
     10 C5'          4.8090     3.9920    -2.0460 c3         1 7DD       0.240400
     11 C4'          4.5660     5.5030    -2.0350 c3         1 7DD       0.122100
     12 O4'          4.4960     5.9910    -0.6780 os         1 7DD      -0.366600
     13 C1'          4.7650     7.4080    -0.7690 c3         1 7DD       0.244800
     14 N9           5.2050     7.9280     0.5280 na         1 7DD      -0.152100
     15 C8           5.7820     7.1800     1.5210 cc         1 7DD      -0.068100
     16 C16          6.0690     7.9630     2.5730 cd         1 7DD      -0.217200
     17 C5           5.6400     9.3150     2.2220 ca         1 7DD      -0.400400
     18 C6           5.6570    10.5620     2.8660 ca         1 7DD       0.725200
     19 N6           6.1750    10.6940     4.1430 nv         1 7DD      -1.015500
     20 N1           5.1630    11.6130     2.2190 nb         1 7DD      -0.854000
     21 C2           4.6680    11.4920     1.0010 ca         1 7DD       0.677900
     22 N3           4.6320    10.3430     0.3590 nb         1 7DD      -0.788000
     23 C4           5.1040     9.2340     0.9240 ca         1 7DD       0.519800
     24 C2'          5.9000     7.5280    -1.8090 c3         1 7DD       0.076100
     25 O2'          5.7150     8.6900    -2.6200 oh         1 7DD      -0.573800
     26 C3'          5.7660     6.2460    -2.6620 c3         1 7DD       0.084100
     27 O3'          5.4940     6.5780    -4.0250 oh         1 7DD      -0.580800
     28 H4           5.0270     3.6690    -3.0570 h1         1 7DD       0.028200
     29 H5           5.6490     3.7580    -1.4040 h1         1 7DD       0.028200
     30 H6           3.6550     5.7480    -2.5680 h1         1 7DD       0.082700
     31 H7           3.8830     7.9350    -1.1130 h2         1 7DD       0.099700
     32 H8           5.9770     6.1160     1.4650 h4         1 7DD       0.204000
     33 H9           6.5300     7.6520     3.5030 ha         1 7DD       0.138000
     34 H10          6.1000    11.5680     4.6250 hn         1 7DD       0.427300
     35 H11          6.6250     9.9160     4.5830 hn         1 7DD       0.427300
     36 H12          4.2710    12.3820     0.5280 h5         1 7DD       0.034100
     37 H13          6.8640     7.5530    -1.3150 h1         1 7DD       0.039700
     38 H14          6.5510     9.0910    -2.7920 ho         1 7DD       0.384000
     39 H15          6.6640     5.6450    -2.5830 h1         1 7DD       0.048700
     40 H16          6.1970     6.2660    -4.5700 ho         1 7DD       0.387000
@<TRIPOS>BOND
     1     4     2 1
     2     8     6 1
     3     7     6 1
     4     6     5 1
     5     6     9 1
     6     2     5 1
     7     2     1 1
     8     2     3 1
     9    19    18 1
    10     9    10 1
    11    16    15 2
    12    16    17 1
    13    15    14 1
    14    17    18 ar
    15    17    23 ar
    16    18    20 ar
    17    10    11 1
    18    12    11 1
    19    12    13 1
    20    14    23 1
    21    14    13 1
    22    23    22 ar
    23    20    21 ar
    24    11    26 1
    25    13    24 1
    26    22    21 ar
    27    24    26 1
    28    24    25 1
    29    26    27 1
    30    10    28 1
    31    10    29 1
    32    11    30 1
    33    13    31 1
    34    15    32 1
    35    16    33 1
    36    19    34 1
    37    19    35 1
    38    21    36 1
    39    24    37 1
    40    25    38 1
    41    26    39 1
    42    27    40 1
@<TRIPOS>SUBSTRUCTURE
     1 7DD         1 TEMP              0 ****  ****    0 ROOT
