@<TRIPOS>MOLECULE
7DE
   36    37     1     0     0
SMALL
bcc


@<TRIPOS>ATOM
      1 O21          0.0000     0.0000     0.0000 o          1 7DE      -0.442500
      2 N19          1.2170     0.0000     0.0000 no         1 7DE       1.045200
      3 O20          1.8260     0.0000     1.0560 o          1 7DE      -0.442500
      4 C12          1.9580    -0.0010    -1.2820 ca         1 7DE      -0.437200
      5 C13          1.2670    -0.0020    -2.4790 ca         1 7DE      -0.007000
      6 C11          3.3400    -0.0080    -1.2800 ca         1 7DE       0.010000
      7 C3           4.0330    -0.0030    -2.4820 ca         1 7DE      -0.161200
      8 C2           3.3360    -0.0040    -3.6830 ca         1 7DE      -0.060000
      9 C1           1.9550    -0.0030    -3.6770 ca         1 7DE      -0.104000
     10 N4           5.4350    -0.0040    -2.4840 na         1 7DE       0.630300
     11 C5           6.2200    -0.6990    -3.3280 cc         1 7DE      -0.205600
     12 C6           5.7540    -1.6140    -4.4300 c3         1 7DE       0.084200
     13 C7           7.5320    -0.4250    -2.9900 cd         1 7DE      -0.349900
     14 C8           7.5020     0.4780    -1.9040 cd         1 7DE       0.423600
     15 N10          6.2550     0.7210    -1.6120 nc         1 7DE      -0.659800
     16 C9           8.7050     1.0610    -1.2050 c3         1 7DE      -0.012400
     17 C14          8.7330    -0.9690    -3.6450 c          1 7DE       0.764700
     18 O18          9.2300    -2.0020    -3.2420 o          1 7DE      -0.579000
     19 O15          9.2830    -0.3200    -4.6900 os         1 7DE      -0.422900
     20 C16         10.4690    -0.8550    -5.3360 c3         1 7DE       0.232400
     21 C17         10.8840     0.0660    -6.4840 c3         1 7DE      -0.003100
     22 H13          0.1840    -0.0010    -2.4780 ha         1 7DE       0.136000
     23 H11          3.8810    -0.0080    -0.3410 ha         1 7DE       0.155000
     24 H2           3.8750    -0.0020    -4.6230 ha         1 7DE       0.125000
     25 H1           1.4100    -0.0030    -4.6140 ha         1 7DE       0.120000
     26 H61          4.8650    -2.1440    -4.1080 hc         1 7DE       0.020033
     27 H62          6.5350    -2.3280    -4.6610 hc         1 7DE       0.020033
     28 H63          5.5260    -1.0290    -5.3130 hc         1 7DE       0.020033
     29 H91          9.2560     1.6870    -1.8960 hc         1 7DE       0.018700
     30 H92          8.3790     1.6550    -0.3600 hc         1 7DE       0.018700
     31 H93          9.3440     0.2590    -0.8570 hc         1 7DE       0.018700
     32 H161        11.2750    -0.9200    -4.6150 h1         1 7DE       0.006200
     33 H162        10.2530    -1.8430    -5.7250 h1         1 7DE       0.006200
     34 H171        11.7220    -0.3720    -7.0140 hc         1 7DE       0.010700
     35 H172        11.1730     1.0310    -6.0860 hc         1 7DE       0.010700
     36 H173        10.0520     0.1910    -7.1660 hc         1 7DE       0.010700
@<TRIPOS>BOND
     1     1     2 1   
     2     2     3 1   
     3     2     4 1   
     4     4     5 ar  
     5     4     6 ar  
     6     5     9 ar  
     7     5    22 1   
     8     6     7 ar  
     9     6    23 1   
    10     7     8 ar  
    11     7    10 1   
    12     8     9 ar  
    13     8    24 1   
    14     9    25 1   
    15    10    11 1   
    16    10    15 1   
    17    11    12 1   
    18    11    13 2   
    19    12    26 1   
    20    12    27 1   
    21    12    28 1   
    22    13    14 1   
    23    13    17 1   
    24    14    15 2   
    25    14    16 1   
    26    16    29 1   
    27    16    30 1   
    28    16    31 1   
    29    17    18 2   
    30    17    19 1   
    31    19    20 1   
    32    20    21 1   
    33    20    32 1   
    34    20    33 1   
    35    21    34 1   
    36    21    35 1   
    37    21    36 1   
@<TRIPOS>SUBSTRUCTURE
     1 7DE         1 TEMP              0 ****  ****    0 ROOT
