@<TRIPOS>MOLECULE
molecule
   18    19     1     0     0
SMALL
bcc


@<TRIPOS>ATOM
      1 N9           0.0000     0.0000     0.0000 ne         1 7DG      -0.556300
      2 C8           1.2870     0.0000     0.0000 c2         1 7DG       0.507200
      3 C7           1.7420     0.0000     1.4460 c3         1 7DG      -0.156500
      4 C5           0.4410     0.0000     2.2120 cd         1 7DG      -0.238400
      5 C6           0.1050    -0.0010     3.5610 c          1 7DG       0.712700
      6 O6           0.9710    -0.0010     4.4220 o          1 7DG      -0.551500
      7 N1          -1.2060     0.0040     3.8980 ns         1 7DG      -0.454400
      8 C2          -2.1530    -0.0000     2.9230 cd         1 7DG       0.480800
      9 N2          -3.4750    -0.0000     3.2820 nz         1 7DG      -0.735600
     10 N3          -1.8390    -0.0000     1.6470 nc         1 7DG      -0.548300
     11 C4          -0.5560     0.0000     1.2440 cc         1 7DG       0.381200
     12 H8           1.8290     0.5790    -0.7380 h4         1 7DG       0.094800
     13 H71          2.3140     0.8930     1.6660 hc         1 7DG       0.131200
     14 H72          2.3140    -0.8930     1.6660 hc         1 7DG       0.131200
     15 HN1         -1.4760     0.0110     4.8620 hn         1 7DG       0.352500
     16 HN21        -3.6710    -0.8130     3.8310 hn         1 7DG       0.483133
     17 HN22        -3.6750     0.8210     3.8170 hn         1 7DG       0.483133
     18 H23         -4.0440    -0.0080     2.4580 hn         1 7DG       0.483133
@<TRIPOS>BOND
     1     1     2 2
     2     1    11 1
     3     2     3 1
     4     2    12 1
     5     3     4 1
     6     3    13 1
     7     3    14 1
     8     4     5 1
     9     4    11 2
    10     5     6 2
    11     5     7 1
    12     7     8 1
    13     7    15 1
    14     8     9 1
    15     8    10 2
    16     9    16 1
    17     9    17 1
    18    10    11 1
    19    18     9 1
@<TRIPOS>SUBSTRUCTURE
     1 7DG         1 TEMP              0 ****  ****    0 ROOT
