@<TRIPOS>MOLECULE
molecule
   14    13     1     0     0
SMALL
bcc


@<TRIPOS>ATOM
      1 C01          0.0000     0.0000     0.0000 c3         1 7DH       0.171600
      2 C02          1.5070     0.0000     0.0000 c2         1 7DH      -0.169200
      3 C03          2.1750     0.0000     1.1570 ce         1 7DH      -0.205200
      4 C04          3.6410    -0.0010     1.1560 c          1 7DH       0.462300
      5 C05          4.3870    -0.0010     2.4480 c          1 7DH       0.810600
      6 O06          3.7810    -0.0010     3.5000 o          1 7DH      -0.814800
      7 O07          5.7330    -0.0020     2.4480 o          1 7DH      -0.814800
      8 O08          4.2470    -0.0020     0.1040 o          1 7DH      -0.542100
      9 O1          -0.4770     0.9520    -0.9520 oh         1 7DH      -0.609800
     10 H1          -0.3610    -0.9870    -0.2640 h1         1 7DH       0.018200
     11 H2          -0.3610     0.2640     0.9870 h1         1 7DH       0.018200
     12 H3           2.0480    -0.0010    -0.9380 ha         1 7DH       0.149000
     13 H5           1.6340     0.0000     2.0950 ha         1 7DH       0.141000
     14 H8          -1.4170     0.9010    -1.0040 ho         1 7DH       0.386000
@<TRIPOS>BOND
     1     2     1 1
     2     2     3 2
     3     8     4 2
     4     3     4 1
     5     4     5 1
     6     5     6 1
     7     5     7 1
     8     1     9 1
     9     1    10 1
    10     1    11 1
    11     2    12 1
    12     3    13 1
    13     9    14 1
@<TRIPOS>SUBSTRUCTURE
     1 7DH         1 TEMP              0 ****  ****    0 ROOT
