@<TRIPOS>MOLECULE
molecule
   49    51     1     0     0
SMALL
bcc


@<TRIPOS>ATOM
      1 C13          0.0000     0.0000     0.0000 ca         1 7DJ       0.094400
      2 C17          2.0820     0.0000     1.2050 ca         1 7DJ       0.094400
      3 C16          1.3850    -0.0000     2.4030 ca         1 7DJ       0.119900
      4 C15          0.0010    -0.0110     2.4000 ca         1 7DJ      -0.171000
      5 C11          4.2460    -2.4080    -5.0290 c3         1 7DJ      -0.083100
      6 C12          1.3900     0.0000     0.0000 ca         1 7DJ       0.121600
      7 F3          -0.6760    -0.0000    -1.1690 f          1 7DJ      -0.103400
      8 C14         -0.6910    -0.0050     1.2000 ca         1 7DJ       0.119900
      9 F2          -2.0420    -0.0040     1.2010 f          1 7DJ      -0.111400
     10 F1           2.0580     0.0000     3.5750 f          1 7DJ      -0.111400
     11 F            3.4330    -0.0000     1.2090 f          1 7DJ      -0.103400
     12 N5           2.0920    -0.0010    -1.2120 nu         1 7DJ      -0.770300
     13 C1           2.9480     1.0520    -1.5210 cc         1 7DJ       0.731200
     14 N            3.5640     1.0690    -2.6830 nd         1 7DJ      -0.629800
     15 N1           4.4300     2.1130    -3.0190 na         1 7DJ       0.254200
     16 C6           5.1850     2.3710    -4.1420 cc         1 7DJ      -0.203300
     17 C7           5.2690     1.5500    -5.3480 c          1 7DJ       0.711300
     18 N4           4.6480     0.3540    -5.3940 ns         1 7DJ      -0.570900
     19 C8           4.8220    -0.5170    -6.5580 c3         1 7DJ       0.092000
     20 C9           3.9600    -1.7710    -6.3900 c3         1 7DJ       0.139800
     21 O2           2.5790    -1.4130    -6.4670 oh         1 7DJ      -0.588800
     22 C10          4.2920    -2.7700    -7.5000 c3         1 7DJ       0.112400
     23 O1           3.4870    -3.9410    -7.3430 oh         1 7DJ      -0.598800
     24 O            5.8990     1.9450    -6.3120 o          1 7DJ      -0.616100
     25 C5           5.8500     3.5660    -3.9020 cd         1 7DJ       0.078600
     26 N3           5.5070     3.9920    -2.6990 nc         1 7DJ      -0.305600
     27 C2           4.6510     3.1350    -2.1460 cd         1 7DJ      -0.119300
     28 C3           3.9930     3.1260    -0.8930 cd         1 7DJ       0.320600
     29 C            3.1410     2.0850    -0.5920 cc         1 7DJ      -0.434300
     30 N2           4.2000     4.1550     0.0190 nu         1 7DJ      -0.778600
     31 C4           3.5130     4.1350     1.3140 c3         1 7DJ       0.218100
     32 H1          -0.5420    -0.0130     3.3370 ha         1 7DJ       0.178000
     33 H3           4.0380    -3.4700    -5.0760 hc         1 7DJ       0.052033
     34 H4           3.6160    -1.9490    -4.2760 hc         1 7DJ       0.052033
     35 H5           2.0050    -0.7760    -1.8400 hn         1 7DJ       0.478800
     36 H6           4.0650     0.0640    -4.6340 hn         1 7DJ       0.347500
     37 H7           5.8630    -0.8040    -6.6430 h1         1 7DJ       0.053700
     38 H8           4.5190     0.0110    -7.4540 h1         1 7DJ       0.053700
     39 H9           2.3530    -1.2210    -7.3620 ho         1 7DJ       0.405000
     40 H10          4.0890    -2.3190    -8.4640 h1         1 7DJ       0.028200
     41 H11          5.3390    -3.0410    -7.4410 h1         1 7DJ       0.028200
     42 H12          3.6440    -4.5290    -8.0630 ho         1 7DJ       0.404000
     43 H13          6.5320     4.0620    -4.5820 h4         1 7DJ       0.207000
     44 H14          2.5570     2.1080     0.3200 ha         1 7DJ       0.151000
     45 H15          4.7970     4.9220    -0.2190 hn         1 7DJ       0.467800
     46 H16          2.4440     4.0640     1.1540 h1         1 7DJ       0.044700
     47 H17          3.8500     3.2800     1.8880 h1         1 7DJ       0.044700
     48 H18          3.7380     5.0450     1.8560 h1         1 7DJ       0.044700
     49 H2           5.2870    -2.2550    -4.7700 hc         1 7DJ       0.052033
@<TRIPOS>BOND
     1    23    22 1   
     2    10     3 1   
     3    22    20 1   
     4     4     3 ar  
     5     4     8 ar  
     6     3     2 ar  
     7    21    20 1   
     8    20    19 1   
     9    20     5 1   
    10     9     8 1   
    11     8     1 ar  
    12     2    11 1   
    13     2     6 ar  
    14    19    18 1   
    15     1     6 ar  
    16     1     7 1   
    17     6    12 1   
    18    18    17 1   
    19    12    13 1   
    20    24    17 2   
    21    17    16 1   
    22    14    13 2   
    23    14    15 1   
    24    13    29 1   
    25    16    15 1   
    26    16    25 2   
    27    15    27 1   
    28    29    28 2   
    29    25    26 1   
    30    27    28 1   
    31    27    26 2   
    32    28    30 1   
    33    30    31 1   
    34     4    32 1   
    35     5    49 1   
    36     5    33 1   
    37     5    34 1   
    38    12    35 1   
    39    18    36 1   
    40    19    37 1   
    41    19    38 1   
    42    21    39 1   
    43    22    40 1   
    44    22    41 1   
    45    23    42 1   
    46    25    43 1   
    47    29    44 1   
    48    30    45 1   
    49    31    46 1   
    50    31    47 1   
    51    31    48 1   
@<TRIPOS>SUBSTRUCTURE
     1 7DJ         1 TEMP              0 ****  ****    0 ROOT
