@<TRIPOS>MOLECULE
7DJ
   49    51     1     0     0
SMALL
bcc


@<TRIPOS>ATOM
      1 C13          0.0000     0.0000     0.0000 ca         1 7DJ       0.083400
      2 C17          2.0820     0.0000     1.2050 ca         1 7DJ       0.083400
      3 C16          1.3850    -0.0000     2.4030 ca         1 7DJ       0.109900
      4 C15          0.0010    -0.0110     2.4000 ca         1 7DJ      -0.129000
      5 C11          4.2460    -2.4080    -5.0290 c3         1 7DJ      -0.008100
      6 C12          1.3900     0.0000     0.0000 ca         1 7DJ      -0.015400
      7 F3          -0.6760    -0.0000    -1.1690 f          1 7DJ      -0.099900
      8 C14         -0.6910    -0.0050     1.2000 ca         1 7DJ       0.109900
      9 F2          -2.0420    -0.0040     1.2010 f          1 7DJ      -0.104900
     10 F1           2.0580     0.0000     3.5750 f          1 7DJ      -0.104900
     11 F            3.4330    -0.0000     1.2090 f          1 7DJ      -0.099900
     12 N5           2.0920    -0.0010    -1.2120 nu         1 7DJ      -0.310300
     13 C1           2.9480     1.0520    -1.5210 cc         1 7DJ       0.627200
     14 N            3.5640     1.0690    -2.6830 nd         1 7DJ      -0.793800
     15 N1           4.4300     2.1130    -3.0190 na         1 7DJ       0.795200
     16 C6           5.1850     2.3710    -4.1420 cc         1 7DJ      -0.428300
     17 C7           5.2690     1.5500    -5.3480 c          1 7DJ       0.642300
     18 N4           4.6480     0.3540    -5.3940 ns         1 7DJ      -0.202900
     19 C8           4.8220    -0.5170    -6.5580 c3         1 7DJ       0.027000
     20 C9           3.9600    -1.7710    -6.3900 c3         1 7DJ       0.144800
     21 O2           2.5790    -1.4130    -6.4670 oh         1 7DJ      -0.574800
     22 C10          4.2920    -2.7700    -7.5000 c3         1 7DJ       0.194400
     23 O1           3.4870    -3.9410    -7.3430 oh         1 7DJ      -0.579800
     24 O            5.8990     1.9450    -6.3120 o          1 7DJ      -0.661100
     25 C5           5.8500     3.5660    -3.9020 cd         1 7DJ       0.093600
     26 N3           5.5070     3.9920    -2.6990 nd         1 7DJ      -0.237600
     27 C2           4.6510     3.1350    -2.1460 cc         1 7DJ      -0.345300
     28 C3           3.9930     3.1260    -0.8930 cd         1 7DJ       0.203600
     29 C            3.1410     2.0850    -0.5920 cc         1 7DJ      -0.481300
     30 N2           4.2000     4.1550     0.0190 nu         1 7DJ      -0.340600
     31 C4           3.5130     4.1350     1.3140 c3         1 7DJ       0.181100
     32 H1          -0.5420    -0.0130     3.3370 ha         1 7DJ       0.147000
     33 H3           4.0380    -3.4700    -5.0760 hc         1 7DJ       0.020700
     34 H4           3.6160    -1.9490    -4.2760 hc         1 7DJ       0.020700
     35 H5           2.0050    -0.7760    -1.8400 hn         1 7DJ       0.311800
     36 H6           4.0650     0.0640    -4.6340 hn         1 7DJ       0.214500
     37 H7           5.8630    -0.8040    -6.6430 h1         1 7DJ       0.028200
     38 H8           4.5190     0.0110    -7.4540 h1         1 7DJ       0.028200
     39 H9           2.3530    -1.2210    -7.3620 ho         1 7DJ       0.395000
     40 H10          4.0890    -2.3190    -8.4640 h1         1 7DJ      -0.006800
     41 H11          5.3390    -3.0410    -7.4410 h1         1 7DJ      -0.006800
     42 H12          3.6440    -4.5290    -8.0630 ho         1 7DJ       0.390000
     43 H13          6.5320     4.0620    -4.5820 h4         1 7DJ       0.158000
     44 H14          2.5570     2.1080     0.3200 ha         1 7DJ       0.148000
     45 H15          4.7970     4.9220    -0.2190 hn         1 7DJ       0.313800
     46 H16          2.4440     4.0640     1.1540 h1         1 7DJ       0.013700
     47 H17          3.8500     3.2800     1.8880 h1         1 7DJ       0.013700
     48 H18          3.7380     5.0450     1.8560 h1         1 7DJ       0.013700
     49 H2           5.2870    -2.2550    -4.7700 hc         1 7DJ       0.020700
@<TRIPOS>BOND
     1     1     6 ar  
     2     1     7 1   
     3     1     8 ar  
     4     2     3 ar  
     5     2     6 ar  
     6     2    11 1   
     7     3     4 ar  
     8     3    10 1   
     9     4     8 ar  
    10     4    32 1   
    11     5    20 1   
    12     5    33 1   
    13     5    34 1   
    14     5    49 1   
    15     6    12 1   
    16     8     9 1   
    17    12    13 1   
    18    12    35 1   
    19    13    14 2   
    20    13    29 1   
    21    14    15 1   
    22    15    16 1   
    23    15    27 1   
    24    16    17 1   
    25    16    25 2   
    26    17    18 1   
    27    17    24 2   
    28    18    19 1   
    29    18    36 1   
    30    19    20 1   
    31    19    37 1   
    32    19    38 1   
    33    20    21 1   
    34    20    22 1   
    35    21    39 1   
    36    22    23 1   
    37    22    40 1   
    38    22    41 1   
    39    23    42 1   
    40    25    26 1   
    41    25    43 1   
    42    26    27 2   
    43    27    28 1   
    44    28    29 2   
    45    28    30 1   
    46    29    44 1   
    47    30    31 1   
    48    30    45 1   
    49    31    46 1   
    50    31    47 1   
    51    31    48 1   
@<TRIPOS>SUBSTRUCTURE
     1 7DJ         1 TEMP              0 ****  ****    0 ROOT
