@<TRIPOS>MOLECULE
molecule
   21    22     1     0     0
SMALL
bcc


@<TRIPOS>ATOM
      1 C25          0.0000     0.0000     0.0000 c          1 7DM       0.884200
      2 O26          1.2140     0.0000     0.0000 o          1 7DM      -0.832800
      3 C27         -0.7380     0.0000     1.2780 ca         1 7DM      -0.138600
      4 C28         -2.1400     0.0000     1.2760 ca         1 7DM      -0.030000
      5 C29         -2.8370     0.0000     2.4500 ca         1 7DM      -0.223000
      6 C30         -2.1590     0.0000     3.6670 ca         1 7DM       0.074600
      7 C31         -0.7520    -0.0000     3.6830 ca         1 7DM      -0.169800
      8 C32         -0.0420    -0.0060     2.4830 ca         1 7DM      -0.043000
      9 C33         -0.0550    -0.0000     4.9770 cc         1 7DM       0.224900
     10 C34         -0.8070    -0.0000     6.1170 cd         1 7DM      -0.344200
     11 C35         -2.2080     0.0010     6.0370 c          1 7DM       0.710700
     12 O36         -2.8610     0.0020     7.0680 o          1 7DM      -0.695500
     13 N37         -2.8510     0.0010     4.8570 ns         1 7DM      -0.429100
     14 O38          1.2960    -0.0010     5.0380 oh         1 7DM      -0.510100
     15 H28         -2.6750     0.0000     0.3350 ha         1 7DM       0.163000
     16 H32          1.0300    -0.1640     2.4880 ha         1 7DM       0.168000
     17 H29         -3.9200     0.0000     2.4340 ha         1 7DM       0.117000
     18 H37         -3.8520     0.0020     4.8430 hn         1 7DM       0.327500
     19 H34         -0.3200    -0.0060     7.0850 ha         1 7DM       0.153000
     20 H38          1.5940     0.8070     5.4190 ho         1 7DM       0.426000
     21 OXT         -0.6740     0.0060    -1.1670 o          1 7DM      -0.832800
@<TRIPOS>BOND
     1     1     2 1   
     2     1     3 1   
     3     3     4 ar  
     4     3     8 ar  
     5     4     5 ar  
     6     5     6 ar  
     7     6     7 ar  
     8     6    13 1   
     9     7     8 ar  
    10     7     9 1   
    11     9    10 2   
    12     9    14 1   
    13    10    11 1   
    14    11    12 2   
    15    11    13 1   
    16     4    15 1   
    17     8    16 1   
    18     5    17 1   
    19    13    18 1   
    20    10    19 1   
    21    14    20 1   
    22     1    21 1   
@<TRIPOS>SUBSTRUCTURE
     1 7DM         1 TEMP              0 ****  ****    0 ROOT
