@<TRIPOS>MOLECULE
7DM
   21    22     1     0     0
SMALL
bcc


@<TRIPOS>ATOM
      1 C25          0.0000     0.0000     0.0000 c          1 7DM       0.974200
      2 O26          1.2140     0.0000     0.0000 o          1 7DM      -0.879800
      3 C27         -0.7380     0.0000     1.2780 ca         1 7DM      -0.134600
      4 C28         -2.1400     0.0000     1.2760 ca         1 7DM       0.001000
      5 C29         -2.8370     0.0000     2.4500 ca         1 7DM      -0.202000
      6 C30         -2.1590     0.0000     3.6670 ca         1 7DM      -0.086400
      7 C31         -0.7520    -0.0000     3.6830 ca         1 7DM      -0.169800
      8 C32         -0.0420    -0.0060     2.4830 ca         1 7DM      -0.016000
      9 C33         -0.0550    -0.0000     4.9770 cc         1 7DM       0.246900
     10 C34         -0.8070    -0.0000     6.1170 cd         1 7DM      -0.345200
     11 C35         -2.2080     0.0010     6.0370 c          1 7DM       0.611700
     12 O36         -2.8610     0.0020     7.0680 o          1 7DM      -0.747500
     13 N37         -2.8510     0.0010     4.8570 ns         1 7DM       0.044900
     14 O38          1.2960    -0.0010     5.0380 oh         1 7DM      -0.488100
     15 H28         -2.6750     0.0000     0.3350 ha         1 7DM       0.131000
     16 H32          1.0300    -0.1640     2.4880 ha         1 7DM       0.137000
     17 H29         -3.9200     0.0000     2.4340 ha         1 7DM       0.098000
     18 H37         -3.8520     0.0020     4.8430 hn         1 7DM       0.164500
     19 H34         -0.3200    -0.0060     7.0850 ha         1 7DM       0.133000
     20 H38          1.5940     0.8070     5.4190 ho         1 7DM       0.406000
     21 OXT         -0.6740     0.0060    -1.1670 o          1 7DM      -0.879800
@<TRIPOS>BOND
     1     1     2 1   
     2     1     3 1   
     3     1    21 1   
     4     3     4 ar  
     5     3     8 ar  
     6     4     5 ar  
     7     4    15 1   
     8     5     6 ar  
     9     5    17 1   
    10     6     7 ar  
    11     6    13 1   
    12     7     8 ar  
    13     7     9 1   
    14     8    16 1   
    15     9    10 2   
    16     9    14 1   
    17    10    11 1   
    18    10    19 1   
    19    11    12 2   
    20    11    13 1   
    21    13    18 1   
    22    14    20 1   
@<TRIPOS>SUBSTRUCTURE
     1 7DM         1 TEMP              0 ****  ****    0 ROOT
