@<TRIPOS>MOLECULE
molecule
   70    74     1     0     0
SMALL
bcc


@<TRIPOS>ATOM
      1 O1           0.0000     0.0000     0.0000 o          1 7DN      -0.836800
      2 C7           3.8520   -11.4090    -3.4150 ca         1 7DN      -0.078000
      3 O2           1.9540     0.0000     1.0520 o          1 7DN      -0.836800
      4 C6           4.1060   -10.4400    -2.4930 ca         1 7DN      -0.227300
      5 C1           3.1750    -6.2530     0.6490 c3         1 7DN      -0.153700
      6 N1           1.8260   -10.3730    -1.8340 nb         1 7DN      -0.705000
      7 C5           3.0620    -9.9340    -1.7060 ca         1 7DN       0.574200
      8 C4           4.0330    -7.8400    -1.0760 c3         1 7DN       0.139300
      9 C3           2.0450    -8.4280     0.1800 c3         1 7DN       0.139300
     10 C2           2.3880    -7.4100     1.2700 c3         1 7DN      -0.068400
     11 O            3.2460    -5.4820     2.8790 o          1 7DN      -0.622100
     12 C15          3.5670    -5.2750     1.7280 c          1 7DN       0.663100
     13 N2           4.2730    -4.1720     1.4130 ns         1 7DN      -0.567900
     14 C16          4.6540    -3.2220     2.4620 c3         1 7DN       0.116700
     15 C29          5.9960    -3.6380     3.0880 c3         1 7DN      -0.100400
     16 C28          6.9790    -2.4770     2.8380 c3         1 7DN      -0.090400
     17 C27          6.3950    -1.7440     1.6050 c3         1 7DN      -0.087400
     18 C17          4.8680    -1.8200     1.8520 c3         1 7DN      -0.074700
     19 C18          4.1050    -1.6870     0.5340 c3         1 7DN      -0.055400
     20 C20          3.4780    -0.1230    -1.2850 ca         1 7DN      -0.059300
     21 C21          4.1600    -0.1290    -2.4830 ca         1 7DN      -0.160000
     22 C22          3.4710    -0.0140    -3.6770 ca         1 7DN      -0.153000
     23 C23          2.0920     0.1070    -3.6790 ca         1 7DN      -0.169000
     24 C24          1.3960     0.1140    -2.4870 ca         1 7DN      -0.090000
     25 C25          2.0860    -0.0000    -1.2790 ca         1 7DN      -0.107600
     26 C26          1.3480     0.0000     0.0000 c          1 7DN       0.883200
     27 C            4.4350    -6.8030    -0.0240 c3         1 7DN      -0.068400
     28 N            3.2850    -8.9270    -0.4330 nh         1 7DN      -0.639300
     29 C8           2.5280   -11.8710    -3.5520 ca         1 7DN      -0.166300
     30 C9           1.5160   -11.3150    -2.7310 ca         1 7DN       0.436600
     31 C13          2.1940   -12.8590    -4.4920 ca         1 7DN      -0.115000
     32 C12          0.9000   -13.2730    -4.6040 ca         1 7DN      -0.131000
     33 C11         -0.0960   -12.7270    -3.7990 ca         1 7DN      -0.126000
     34 C10          0.1950   -11.7760    -2.8680 ca         1 7DN      -0.116600
     35 C14         -0.9000   -11.2000    -2.0070 c3         1 7DN      -0.037800
     36 H4           2.5600    -5.7550    -0.0910 hc         1 7DN       0.076700
     37 H5           3.4100    -7.3680    -1.8260 h1         1 7DN       0.046950
     38 H6           4.9240    -8.2430    -1.5420 h1         1 7DN       0.046950
     39 H7           1.5020    -9.2570     0.6200 h1         1 7DN       0.046950
     40 H8           1.4350    -7.9520    -0.5780 h1         1 7DN       0.046950
     41 H9           2.9900    -7.8880     2.0330 hc         1 7DN       0.060700
     42 H10          1.4730    -7.0290     1.7080 hc         1 7DN       0.060700
     43 H11          4.5800    -4.0270     0.4710 hn         1 7DN       0.319500
     44 H12          3.8880    -3.1790     3.2260 h1         1 7DN       0.089700
     45 H13          6.3620    -4.5410     2.6130 hc         1 7DN       0.043700
     46 H14          5.8730    -3.7960     4.1530 hc         1 7DN       0.043700
     47 H15          7.0050    -1.8130     3.6940 hc         1 7DN       0.034700
     48 H16          7.9680    -2.8600     2.6170 hc         1 7DN       0.034700
     49 H17          6.7270    -0.7130     1.5800 hc         1 7DN       0.041200
     50 H18          6.6610    -2.2620     0.6920 hc         1 7DN       0.041200
     51 H19          4.5620    -1.0540     2.5540 hc         1 7DN       0.082700
     52 H20          4.5200    -2.3730    -0.1950 hc         1 7DN       0.049200
     53 H21          3.0600    -1.9220     0.6960 hc         1 7DN       0.049200
     54 H24          5.2400    -0.2230    -2.4900 ha         1 7DN       0.105000
     55 H25          4.0120    -0.0190    -4.6150 ha         1 7DN       0.099000
     56 H26          1.5580     0.1960    -4.6170 ha         1 7DN       0.104000
     57 H27          0.3170     0.2090    -2.4890 ha         1 7DN       0.153000
     58 H28          5.0670    -7.2720     0.7210 hc         1 7DN       0.060700
     59 H29          4.9710    -5.9930    -0.5030 hc         1 7DN       0.060700
     60 H30          2.9600   -13.2910    -5.1240 ha         1 7DN       0.127000
     61 H31          0.6420   -14.0280    -5.3360 ha         1 7DN       0.125000
     62 H32         -1.1170   -13.0730    -3.9070 ha         1 7DN       0.130000
     63 H33         -0.9920   -10.1390    -2.2020 hc         1 7DN       0.048700
     64 H34         -0.6560   -11.3550    -0.9630 hc         1 7DN       0.048700
     65 H35         -1.8370   -11.6930    -2.2360 hc         1 7DN       0.048700
     66 H2           4.6470   -11.8120    -4.0320 ha         1 7DN       0.138000
     67 C19          4.2300    -0.2540     0.0140 c3         1 7DN      -0.032100
     68 H3           5.1130   -10.0610    -2.3670 ha         1 7DN       0.143000
     69 H22          3.8140     0.4320     0.7420 hc         1 7DN       0.056700
     70 H23          5.2740    -0.0190    -0.1490 hc         1 7DN       0.056700
@<TRIPOS>BOND
     1    32    33 ar
     2    32    31 ar
     3    33    34 ar
     4    31    29 ar
     5    29    30 ar
     6    29     2 ar
     7    34    30 ar
     8    34    35 1
     9    30     6 ar
    10     2     4 ar
    11     6     7 ar
    12     4     7 ar
    13     7    28 1
    14    28     9 1
    15    28     8 1
    16     9    10 1
    17     8    27 1
    18    10     5 1
    19    27     5 1
    20    22    23 ar
    21    22    21 ar
    22    23    24 ar
    23     5    12 1
    24    21    20 ar
    25    24    25 ar
    26    12    11 2
    27    12    13 1
    28    20    25 ar
    29    20    67 1
    30    25    26 1
    31    13    14 1
    32    67    19 1
    33    19    18 1
    34    26     3 1
    35    26     1 1
    36    14    18 1
    37    14    15 1
    38    18    17 1
    39    15    16 1
    40    17    16 1
    41     2    66 1
    42     4    68 1
    43     5    36 1
    44     8    37 1
    45     8    38 1
    46     9    39 1
    47     9    40 1
    48    10    41 1
    49    10    42 1
    50    13    43 1
    51    14    44 1
    52    15    45 1
    53    15    46 1
    54    16    47 1
    55    16    48 1
    56    17    49 1
    57    17    50 1
    58    18    51 1
    59    19    52 1
    60    19    53 1
    61    67    69 1
    62    67    70 1
    63    21    54 1
    64    22    55 1
    65    23    56 1
    66    24    57 1
    67    27    58 1
    68    27    59 1
    69    31    60 1
    70    32    61 1
    71    33    62 1
    72    35    63 1
    73    35    64 1
    74    35    65 1
@<TRIPOS>SUBSTRUCTURE
     1 7DN         1 TEMP              0 ****  ****    0 ROOT
