@<TRIPOS>MOLECULE
7DN
   70    74     1     0     0
SMALL
bcc


@<TRIPOS>ATOM
      1 O1           0.0000     0.0000     0.0000 o          1 7DN      -0.881800
      2 C7           3.8520   -11.4090    -3.4150 ca         1 7DN      -0.057000
      3 O2           1.9540     0.0000     1.0520 o          1 7DN      -0.881800
      4 C6           4.1060   -10.4400    -2.4930 ca         1 7DN      -0.195300
      5 C1           3.1750    -6.2530     0.6490 c3         1 7DN      -0.130700
      6 N1           1.8260   -10.3730    -1.8340 nb         1 7DN      -0.579000
      7 C5           3.0620    -9.9340    -1.7060 ca         1 7DN       0.472200
      8 C4           4.0330    -7.8400    -1.0760 c3         1 7DN       0.145800
      9 C3           2.0450    -8.4280     0.1800 c3         1 7DN       0.145800
     10 C2           2.3880    -7.4100     1.2700 c3         1 7DN      -0.017400
     11 O            3.2460    -5.4820     2.8790 o          1 7DN      -0.661100
     12 C15          3.5670    -5.2750     1.7280 c          1 7DN       0.579100
     13 N2           4.2730    -4.1720     1.4130 ns         1 7DN      -0.184900
     14 C16          4.6540    -3.2220     2.4620 c3         1 7DN       0.021700
     15 C29          5.9960    -3.6380     3.0880 c3         1 7DN      -0.044400
     16 C28          6.9790    -2.4770     2.8380 c3         1 7DN      -0.027400
     17 C27          6.3950    -1.7440     1.6050 c3         1 7DN      -0.035400
     18 C17          4.8680    -1.8200     1.8520 c3         1 7DN      -0.049700
     19 C18          4.1050    -1.6870     0.5340 c3         1 7DN      -0.028400
     20 C20          3.4780    -0.1230    -1.2850 ca         1 7DN      -0.055300
     21 C21          4.1600    -0.1290    -2.4830 ca         1 7DN      -0.143000
     22 C22          3.4710    -0.0140    -3.6770 ca         1 7DN      -0.131000
     23 C23          2.0920     0.1070    -3.6790 ca         1 7DN      -0.151000
     24 C24          1.3960     0.1140    -2.4870 ca         1 7DN      -0.060000
     25 C25          2.0860    -0.0000    -1.2790 ca         1 7DN      -0.109600
     26 C26          1.3480     0.0000     0.0000 c          1 7DN       0.977200
     27 C            4.4350    -6.8030    -0.0240 c3         1 7DN      -0.017400
     28 N            3.2850    -8.9270    -0.4330 nh         1 7DN      -0.498300
     29 C8           2.5280   -11.8710    -3.5520 ca         1 7DN      -0.155300
     30 C9           1.5160   -11.3150    -2.7310 ca         1 7DN       0.387600
     31 C13          2.1940   -12.8590    -4.4920 ca         1 7DN      -0.090000
     32 C12          0.9000   -13.2730    -4.6040 ca         1 7DN      -0.100000
     33 C11         -0.0960   -12.7270    -3.7990 ca         1 7DN      -0.104000
     34 C10          0.1950   -11.7760    -2.8680 ca         1 7DN      -0.124600
     35 C14         -0.9000   -11.2000    -2.0070 c3         1 7DN       0.067200
     36 H4           2.5600    -5.7550    -0.0910 hc         1 7DN       0.048700
     37 H5           3.4100    -7.3680    -1.8260 h1         1 7DN       0.017450
     38 H6           4.9240    -8.2430    -1.5420 h1         1 7DN       0.017450
     39 H7           1.5020    -9.2570     0.6200 h1         1 7DN       0.017450
     40 H8           1.4350    -7.9520    -0.5780 h1         1 7DN       0.017450
     41 H9           2.9900    -7.8880     2.0330 hc         1 7DN       0.030450
     42 H10          1.4730    -7.0290     1.7080 hc         1 7DN       0.030450
     43 H11          4.5800    -4.0270     0.4710 hn         1 7DN       0.188500
     44 H12          3.8880    -3.1790     3.2260 h1         1 7DN       0.065700
     45 H13          6.3620    -4.5410     2.6130 hc         1 7DN       0.015200
     46 H14          5.8730    -3.7960     4.1530 hc         1 7DN       0.015200
     47 H15          7.0050    -1.8130     3.6940 hc         1 7DN       0.007200
     48 H16          7.9680    -2.8600     2.6170 hc         1 7DN       0.007200
     49 H17          6.7270    -0.7130     1.5800 hc         1 7DN       0.015700
     50 H18          6.6610    -2.2620     0.6920 hc         1 7DN       0.015700
     51 H19          4.5620    -1.0540     2.5540 hc         1 7DN       0.057700
     52 H20          4.5200    -2.3730    -0.1950 hc         1 7DN       0.029700
     53 H21          3.0600    -1.9220     0.6960 hc         1 7DN       0.029700
     54 H24          5.2400    -0.2230    -2.4900 ha         1 7DN       0.087000
     55 H25          4.0120    -0.0190    -4.6150 ha         1 7DN       0.079000
     56 H26          1.5580     0.1960    -4.6170 ha         1 7DN       0.084000
     57 H27          0.3170     0.2090    -2.4890 ha         1 7DN       0.128000
     58 H28          5.0670    -7.2720     0.7210 hc         1 7DN       0.030450
     59 H29          4.9710    -5.9930    -0.5030 hc         1 7DN       0.030450
     60 H30          2.9600   -13.2910    -5.1240 ha         1 7DN       0.103000
     61 H31          0.6420   -14.0280    -5.3360 ha         1 7DN       0.098000
     62 H32         -1.1170   -13.0730    -3.9070 ha         1 7DN       0.105000
     63 H33         -0.9920   -10.1390    -2.2020 hc         1 7DN       0.013033
     64 H34         -0.6560   -11.3550    -0.9630 hc         1 7DN       0.013033
     65 H35         -1.8370   -11.6930    -2.2360 hc         1 7DN       0.013033
     66 H2           4.6470   -11.8120    -4.0320 ha         1 7DN       0.109000
     67 C19          4.2300    -0.2540     0.0140 c3         1 7DN       0.002900
     68 H3           5.1130   -10.0610    -2.3670 ha         1 7DN       0.120000
     69 H22          3.8140     0.4320     0.7420 hc         1 7DN       0.038700
     70 H23          5.2740    -0.0190    -0.1490 hc         1 7DN       0.038700
@<TRIPOS>BOND
     1     1    26 1   
     2     2     4 ar  
     3     2    29 ar  
     4     2    66 1   
     5     3    26 1   
     6     4     7 ar  
     7     4    68 1   
     8     5    10 1   
     9     5    12 1   
    10     5    27 1   
    11     5    36 1   
    12     6     7 ar  
    13     6    30 ar  
    14     7    28 1   
    15     8    27 1   
    16     8    28 1   
    17     8    37 1   
    18     8    38 1   
    19     9    10 1   
    20     9    28 1   
    21     9    39 1   
    22     9    40 1   
    23    10    41 1   
    24    10    42 1   
    25    11    12 2   
    26    12    13 1   
    27    13    14 1   
    28    13    43 1   
    29    14    15 1   
    30    14    18 1   
    31    14    44 1   
    32    15    16 1   
    33    15    45 1   
    34    15    46 1   
    35    16    17 1   
    36    16    47 1   
    37    16    48 1   
    38    17    18 1   
    39    17    49 1   
    40    17    50 1   
    41    18    19 1   
    42    18    51 1   
    43    19    52 1   
    44    19    53 1   
    45    19    67 1   
    46    20    21 ar  
    47    20    25 ar  
    48    20    67 1   
    49    21    22 ar  
    50    21    54 1   
    51    22    23 ar  
    52    22    55 1   
    53    23    24 ar  
    54    23    56 1   
    55    24    25 ar  
    56    24    57 1   
    57    25    26 1   
    58    27    58 1   
    59    27    59 1   
    60    29    30 ar  
    61    29    31 ar  
    62    30    34 ar  
    63    31    32 ar  
    64    31    60 1   
    65    32    33 ar  
    66    32    61 1   
    67    33    34 ar  
    68    33    62 1   
    69    34    35 1   
    70    35    63 1   
    71    35    64 1   
    72    35    65 1   
    73    67    69 1   
    74    67    70 1   
@<TRIPOS>SUBSTRUCTURE
     1 7DN         1 TEMP              0 ****  ****    0 ROOT
