@<TRIPOS>MOLECULE
molecule
   27    27     1     0     0
SMALL
bcc


@<TRIPOS>ATOM
      1 C10          0.0000     0.0000     0.0000 c          1 7DP       0.656100
      2 C11          1.2000    -0.0020     7.3030 ca         1 7DP       0.091100
      3 O01          1.2120     0.0000     0.0000 o          1 7DP      -0.606100
      4 N02         -0.6740     0.0000     1.1670 ns         1 7DP      -0.594900
      5 C03         -0.9360     0.0020     3.5990 c3         1 7DP      -0.053100
      6 C04          0.0580     0.0010     2.4360 c3         1 7DP       0.115000
      7 C05         -0.1830     0.0020     4.9040 ca         1 7DP      -0.080300
      8 C06          0.1610     1.2010     5.5010 ca         1 7DP      -0.147000
      9 C07          0.1610    -1.1960     5.5020 ca         1 7DP      -0.118000
     10 C08          0.8540     1.2030     6.7010 ca         1 7DP       0.094100
     11 C09          0.8520    -1.2000     6.6990 ca         1 7DP      -0.149000
     12 C12         -0.7530     0.0060    -1.3050 c3         1 7DP      -0.172100
     13 O14          1.1930     2.3820     7.2890 oh         1 7DP      -0.511100
     14 H1          -1.6750    -0.0170     1.1670 hn         1 7DP       0.311500
     15 H2          -1.5590     0.8860     3.5410 hc         1 7DP       0.053200
     16 H3          -1.5590    -0.8830     3.5420 hc         1 7DP       0.053200
     17 H4           0.6810     0.8860     2.4930 h1         1 7DP       0.057700
     18 H5           0.6810    -0.8830     2.4940 h1         1 7DP       0.057700
     19 H6          -0.1100     2.1380     5.0300 ha         1 7DP       0.144000
     20 H7          -0.1100    -2.1330     5.0320 ha         1 7DP       0.136000
     21 H8           1.1210    -2.1400     7.1660 ha         1 7DP       0.144000
     22 H9          -0.0490     0.0120    -2.1290 hc         1 7DP       0.060367
     23 H10         -1.3730    -0.8800    -1.3680 hc         1 7DP       0.060367
     24 H11         -1.3780     0.8890    -1.3580 hc         1 7DP       0.060367
     25 H12          1.3020    -0.2410     9.1810 ho         1 7DP       0.422000
     26 H13          1.9110     2.7720     6.8190 ho         1 7DP       0.424000
     27 O13          1.8850    -0.0050     8.4790 oh         1 7DP      -0.510100
@<TRIPOS>BOND
     1     3     1 2   
     2    12     1 1   
     3     1     4 1   
     4    11     9 ar  
     5    11     2 ar  
     6     9     7 ar  
     7     4     6 1   
     8     6     5 1   
     9    27     2 1   
    10     2    10 ar  
    11     7     5 1   
    12     7     8 ar  
    13    10     8 ar  
    14    10    13 1   
    15     4    14 1   
    16     5    15 1   
    17     5    16 1   
    18     6    17 1   
    19     6    18 1   
    20     8    19 1   
    21     9    20 1   
    22    11    21 1   
    23    12    22 1   
    24    12    23 1   
    25    12    24 1   
    26    27    25 1   
    27    13    26 1   
@<TRIPOS>SUBSTRUCTURE
     1 7DP         1 TEMP              0 ****  ****    0 ROOT
