@<TRIPOS>MOLECULE
7DP
   27    27     1     0     0
SMALL
bcc


@<TRIPOS>ATOM
      1 C10          0.0000     0.0000     0.0000 c          1 7DP       0.570100
      2 C11          1.2000    -0.0020     7.3030 ca         1 7DP       0.100100
      3 O01          1.2120     0.0000     0.0000 o          1 7DP      -0.645100
      4 N02         -0.6740     0.0000     1.1670 ns         1 7DP      -0.208900
      5 C03         -0.9360     0.0020     3.5990 c3         1 7DP       0.019900
      6 C04          0.0580     0.0010     2.4360 c3         1 7DP       0.052000
      7 C05         -0.1830     0.0020     4.9040 ca         1 7DP      -0.088300
      8 C06          0.1610     1.2010     5.5010 ca         1 7DP      -0.127000
      9 C07          0.1610    -1.1960     5.5020 ca         1 7DP      -0.091000
     10 C08          0.8540     1.2030     6.7010 ca         1 7DP       0.104100
     11 C09          0.8520    -1.2000     6.6990 ca         1 7DP      -0.128000
     12 C12         -0.7530     0.0060    -1.3050 c3         1 7DP      -0.067100
     13 O14          1.1930     2.3820     7.2890 oh         1 7DP      -0.490100
     14 H1          -1.6750    -0.0170     1.1670 hn         1 7DP       0.173500
     15 H2          -1.5590     0.8860     3.5410 hc         1 7DP       0.019700
     16 H3          -1.5590    -0.8830     3.5420 hc         1 7DP       0.019700
     17 H4           0.6810     0.8860     2.4930 h1         1 7DP       0.029700
     18 H5           0.6810    -0.8830     2.4940 h1         1 7DP       0.029700
     19 H6          -0.1100     2.1380     5.0300 ha         1 7DP       0.117000
     20 H7          -0.1100    -2.1330     5.0320 ha         1 7DP       0.108000
     21 H8           1.1210    -2.1400     7.1660 ha         1 7DP       0.115000
     22 H9          -0.0490     0.0120    -2.1290 hc         1 7DP       0.022033
     23 H10         -1.3730    -0.8800    -1.3680 hc         1 7DP       0.022033
     24 H11         -1.3780     0.8890    -1.3580 hc         1 7DP       0.022033
     25 H12          1.3020    -0.2410     9.1810 ho         1 7DP       0.404000
     26 H13          1.9110     2.7720     6.8190 ho         1 7DP       0.406000
     27 O13          1.8850    -0.0050     8.4790 oh         1 7DP      -0.488100
@<TRIPOS>BOND
     1     1     3 2   
     2     1     4 1   
     3     1    12 1   
     4     2    10 ar  
     5     2    11 ar  
     6     2    27 1   
     7     4     6 1   
     8     4    14 1   
     9     5     6 1   
    10     5     7 1   
    11     5    15 1   
    12     5    16 1   
    13     6    17 1   
    14     6    18 1   
    15     7     8 ar  
    16     7     9 ar  
    17     8    10 ar  
    18     8    19 1   
    19     9    11 ar  
    20     9    20 1   
    21    10    13 1   
    22    11    21 1   
    23    12    22 1   
    24    12    23 1   
    25    12    24 1   
    26    13    26 1   
    27    25    27 1   
@<TRIPOS>SUBSTRUCTURE
     1 7DP         1 TEMP              0 ****  ****    0 ROOT
