@<TRIPOS>MOLECULE
molecule
   49    51     1     0     0
SMALL
bcc


@<TRIPOS>ATOM
      1 C17          0.0000     0.0000     0.0000 ca         1 7DQ       0.466300
      2 C20          1.4010     0.0000     0.0000 ca         1 7DQ      -0.144300
      3 C21          2.0490     0.0000     1.2220 ca         1 7DQ      -0.194300
      4 C22          0.8720     0.0000     4.7000 c3         1 7DQ      -0.054200
      5 C26          3.6440    -3.9100     6.8920 ca         1 7DQ      -0.154500
      6 C01          0.3070    -5.3350     6.6540 c3         1 7DQ      -0.121600
      7 C03          2.6770    -6.1710     6.6130 c3         1 7DQ      -0.121600
      8 C04          2.4190    -4.0130     7.0740 ca         1 7DQ      -0.080300
      9 C05          1.5820    -2.8110     7.4350 ca         1 7DQ      -0.154500
     10 C06          2.1970    -1.5860     7.5620 ca         1 7DQ      -0.092000
     11 C07          3.4740    -1.6170     7.3460 ca         1 7DQ      -0.164300
     12 C08          1.3970    -0.0170     7.9860 c3         1 7DQ      -0.360100
     13 C11          3.5810    -0.9960     5.0730 c3         1 7DQ      -0.271500
     14 C12          2.8000    -1.1320     3.7620 c3         1 7DQ      -0.054200
     15 C14          1.2680     0.0000     2.3790 ca         1 7DQ       0.504200
     16 C18         -0.7180    -0.0050    -1.2400 cg         1 7DQ       0.130800
     17 C23          1.5730     0.1830     6.0490 c3         1 7DQ      -0.271500
     18 C25          4.3820    -2.4880     7.0350 ca         1 7DQ      -0.092000
     19 N10          2.6190    -0.8430     6.1750 n          1 7DQ       0.262200
     20 N13          1.8750     0.0000     3.6260 nh         1 7DQ      -0.034300
     21 N15         -0.0560    -0.0000     2.2840 nb         1 7DQ      -0.305000
     22 N16         -0.6600     0.0000     1.1520 nb         1 7DQ      -0.253000
     23 N19         -1.2870     0.0110    -2.2230 n1         1 7DQ      -0.300800
     24 O24          3.5640     0.8320     7.2530 o          1 7DQ      -0.748100
     25 H1           2.0760     0.2060    -0.8220 ha         1 7DQ       0.174000
     26 H2           3.0190     0.0090     1.7040 ha         1 7DQ       0.188000
     27 H3           0.1100     0.7700     4.6820 h1         1 7DQ       0.046950
     28 H4           1.6780     0.3390     4.0600 h1         1 7DQ       0.046950
     29 H5           4.2240    -4.8230     6.8280 ha         1 7DQ       0.154500
     30 H6          -0.4860    -4.8250     7.1880 hc         1 7DQ       0.055200
     31 H7           0.3650    -6.3570     6.3010 hc         1 7DQ       0.055200
     32 H8           0.4610    -4.7580     5.7510 hc         1 7DQ       0.055200
     33 H9           1.4810    -5.5470     8.2460 hc         1 7DQ       0.066700
     34 H10          3.2870    -5.5650     5.9530 hc         1 7DQ       0.055200
     35 H11          3.1610    -6.5440     7.5080 hc         1 7DQ       0.055200
     36 H12          2.1380    -7.1060     6.5220 hc         1 7DQ       0.055200
     37 H13          0.5200    -2.9980     7.5390 ha         1 7DQ       0.154500
     38 H14          1.4780    -0.7810     7.6580 ha         1 7DQ       0.236500
     39 H15          1.3980    -0.2870     9.0350 hc         1 7DQ       0.133700
     40 H16          1.6700     1.0300     7.9310 hc         1 7DQ       0.133700
     41 H17          2.8410    -0.9440     5.8630 h1         1 7DQ       0.048200
     42 H18          4.1830    -1.8790     5.2520 h1         1 7DQ       0.048200
     43 H19          3.6400    -1.5640     3.2320 h1         1 7DQ       0.046950
     44 H20          2.2030    -0.2330     3.8570 h1         1 7DQ       0.046950
     45 H21          1.1590     0.1370     7.0490 h1         1 7DQ       0.048200
     46 H22          2.3720    -0.5470     6.0900 h1         1 7DQ       0.048200
     47 H23          5.3570    -2.4420     6.5650 ha         1 7DQ       0.236500
     48 C09          2.4330    -0.0160     6.8770 c          1 7DQ       0.465100
     49 C02          1.7690    -5.3500     7.2210 c3         1 7DQ      -0.049400
@<TRIPOS>BOND
     1    23    16 3   
     2    16     1 1   
     3     1     2 ar  
     4     1    22 ar  
     5     2     3 ar  
     6    22    21 ar  
     7     3    15 ar  
     8    21    15 ar  
     9    15    20 1   
    10    20     4 1   
    11    20    14 1   
    12     4    17 1   
    13    14    13 1   
    14    17    19 1   
    15    13    19 1   
    16    19    48 1   
    17    48    12 1   
    18    48    24 2   
    19    12    11 1   
    20    10    11 ar  
    21    10     9 ar  
    22    11    18 ar  
    23     9     8 ar  
    24    18     5 ar  
    25     8     5 ar  
    26     8    49 1   
    27     6    49 1   
    28    49     7 1   
    29     2    25 1   
    30     3    26 1   
    31     4    27 1   
    32     4    28 1   
    33     5    29 1   
    34     6    30 1   
    35     6    31 1   
    36     6    32 1   
    37    49    33 1   
    38     7    34 1   
    39     7    35 1   
    40     7    36 1   
    41     9    37 1   
    42    10    38 1   
    43    12    39 1   
    44    12    40 1   
    45    13    41 1   
    46    13    42 1   
    47    14    43 1   
    48    14    44 1   
    49    17    45 1   
    50    17    46 1   
    51    18    47 1   
@<TRIPOS>SUBSTRUCTURE
     1 7DQ         1 TEMP              0 ****  ****    0 ROOT
