@<TRIPOS>MOLECULE
molecule
   49    51     1     0     0
SMALL
bcc


@<TRIPOS>ATOM
      1 N1           0.0000     0.0000     0.0000 nb         1 7DR      -0.856000
      2 C2           1.3250     0.0000     0.0000 ca         1 7DR       0.945900
      3 N3           2.0280     0.0000     1.1240 nb         1 7DR      -0.846000
      4 C4           1.4280    -0.0010     2.3040 ca         1 7DR       0.527600
      5 C5           0.0340    -0.0010     2.3570 ca         1 7DR      -0.341600
      6 C6          -0.6780    -0.0010     1.1410 ca         1 7DR       0.752200
      7 CAA          2.5160     1.4410     4.0030 c3         1 7DR      -0.054100
      8 CAB         -4.7790    -4.2660     5.6570 c3         1 7DR       0.094700
      9 NAC          1.9960     0.0010    -1.2100 nv         1 7DR      -0.981500
     10 NAD         -2.0620    -0.0000     1.1360 nv         1 7DR      -0.959500
     11 CAE         -1.2110     0.0140     4.6460 c1         1 7DR      -0.211100
     12 CAF         -0.6540    -0.0030     3.6130 cg         1 7DR      -0.140000
     13 CAG         -6.6970     5.1380     6.7380 ca         1 7DR      -0.169000
     14 CAH         -7.9260     4.1670     5.9820 ca         1 7DR      -0.139500
     15 CAI         -5.6560     4.4070     6.7400 ca         1 7DR      -0.139500
     16 CAJ         -7.2980     2.7830     5.5950 ca         1 7DR      -0.107000
     17 CAK         -5.0600     3.2180     6.4240 ca         1 7DR      -0.107000
     18 CAL         -4.0370    -1.9240     5.8230 ca         1 7DR      -0.224000
     19 CAM         -4.2000     0.5560     5.5800 ca         1 7DR      -0.137000
     20 CAN         -6.1750    -1.0300     5.1680 ca         1 7DR      -0.157000
     21 CAO          2.2410    -0.0020     3.5740 c3         1 7DR      -0.177700
     22 CAP         -2.0430    -0.2910     6.2780 c3         1 7DR       0.124000
     23 OAS         -5.8370    -3.3970     5.1550 os         1 7DR      -0.309900
     24 CAU         -3.4970    -0.4990     5.8560 ca         1 7DR      -0.115300
     25 CAW         -5.3100    -2.0750     5.4880 ca         1 7DR       0.129100
     26 CAX         -6.2300     2.6060     5.8330 cp         1 7DR       0.066000
     27 CAY         -5.6280     0.2470     5.2150 cp         1 7DR      -0.108000
     28 HAA          2.8790     2.0490     3.1840 hc         1 7DR       0.033700
     29 HAAA         1.6650     1.8630     4.5240 hc         1 7DR       0.033700
     30 HAAB         3.3100     1.6320     4.7150 hc         1 7DR       0.033700
     31 HAB         -4.4500    -4.2680     6.6890 h1         1 7DR       0.036700
     32 HABA        -5.1770    -5.2670     5.5420 h1         1 7DR       0.036700
     33 HABB        -3.8980    -4.2940     5.0270 h1         1 7DR       0.036700
     34 HNAC         1.5180     0.1600    -2.0740 hn         1 7DR       0.461800
     35 HNAA         2.9490     0.1280    -0.9300 hn         1 7DR       0.461800
     36 HNAD        -2.5730     0.5660     0.4880 hn         1 7DR       0.431800
     37 HNAB        -2.4200    -0.1230     2.0630 hn         1 7DR       0.431800
     38 HAG         -6.8330     6.2120     6.7750 ha         1 7DR       0.173000
     39 HAH         -8.7930     4.8100     5.8970 ha         1 7DR       0.130000
     40 HAI         -4.8780     5.0840     7.0720 ha         1 7DR       0.130000
     41 HAJ         -8.1010     2.3890     4.9840 ha         1 7DR       0.188000
     42 HAK         -4.0260     3.0450     6.6980 ha         1 7DR       0.188000
     43 HAL         -3.2000    -2.5890     5.6490 ha         1 7DR       0.155000
     44 HAM         -3.8320     1.5730     5.6480 ha         1 7DR       0.149000
     45 HAN         -7.1570    -1.3180     4.8150 ha         1 7DR       0.160000
     46 HAO          1.6170    -0.0480     4.4580 hc         1 7DR       0.096200
     47 HAOA         2.5680    -0.9310     3.1230 hc         1 7DR       0.096200
     48 HAP         -1.6310    -1.2590     6.5350 hc         1 7DR       0.089200
     49 HAPA        -2.0130     0.6850     6.7480 hc         1 7DR       0.089200
@<TRIPOS>BOND
     1     1     6 ar  
     2     1     2 ar  
     3     9     2 1   
     4     2     3 ar  
     5     3     4 ar  
     6     5     4 ar  
     7     4    21 1   
     8     6     5 ar  
     9     5    12 1   
    10    10     6 1   
    11    21     7 1   
    12     7    28 1   
    13     7    29 1   
    14     7    30 1   
    15     8    23 1   
    16     8    31 1   
    17     8    32 1   
    18     8    33 1   
    19     9    34 1   
    20     9    35 1   
    21    10    36 1   
    22    10    37 1   
    23    12    11 3   
    24    11    22 1   
    25    14    13 ar  
    26    13    15 ar  
    27    13    38 1   
    28    16    14 ar  
    29    14    39 1   
    30    17    15 ar  
    31    15    40 1   
    32    16    26 ar  
    33    16    41 1   
    34    26    17 ar  
    35    17    42 1   
    36    24    18 ar  
    37    18    25 ar  
    38    18    43 1   
    39    24    19 ar  
    40    19    27 ar  
    41    19    44 1   
    42    27    20 ar  
    43    25    20 ar  
    44    20    45 1   
    45    21    46 1   
    46    21    47 1   
    47    22    24 1   
    48    22    48 1   
    49    22    49 1   
    50    25    23 1   
    51    27    26 1   
@<TRIPOS>SUBSTRUCTURE
     1 7DR         1 TEMP              0 ****  ****    0 ROOT
