@<TRIPOS>MOLECULE
7DR
   49    51     1     0     0
SMALL
bcc


@<TRIPOS>ATOM
      1 N1          0.2610   -0.2870   -0.2080 nb        1 7DR     -0.833000
      2 C2          1.5930   -0.5930    0.0010 ca        1 7DR      0.916900
      3 N3          2.2480   -0.5650    1.2280 nb        1 7DR     -0.792000
      4 C4          1.5030   -0.2500    2.3060 ca        1 7DR      0.538600
      5 C5          0.1200    0.0460    2.2210 ca        1 7DR     -0.338600
      6 C6         -0.4800    0.0050    0.9060 ca        1 7DR      0.745200
      7 CAA         3.1840    0.9120    3.7400 c3        1 7DR     -0.087100
      8 CAB        -5.1100   -2.8700    3.8300 c3        1 7DR      0.112700
      9 NAC         2.3310   -1.0110   -1.1080 nh        1 7DR     -0.933500
     10 NAD        -1.8320    0.2280    0.7590 nh        1 7DR     -0.956500
     11 CAE        -1.3290    0.6510    4.2890 c1        1 7DR     -0.156100
     12 CAF        -0.6520    0.3710    3.3390 cg        1 7DR     -0.084000
     13 CAG        -8.5920    4.7760    6.2340 ca        1 7DR     -0.126000
     14 CAH        -8.8990    3.4640    6.5920 ca        1 7DR     -0.131500
     15 CAI        -7.3920    5.0550    5.5810 ca        1 7DR     -0.131500
     16 CAJ        -8.0100    2.4320    6.2990 ca        1 7DR     -0.116000
     17 CAK        -6.4980    4.0270    5.2880 ca        1 7DR     -0.116000
     18 CAL        -4.0530   -0.4470    4.7560 ca        1 7DR     -0.195000
     19 CAM        -4.4840    1.8170    5.5030 ca        1 7DR     -0.151000
     20 CAN        -6.3420    0.3930    4.8800 ca        1 7DR     -0.147000
     21 CAO         2.1900   -0.2200    3.6470 c3        1 7DR     -0.138700
     22 CAP        -2.1200    0.9970    5.4320 c3        1 7DR      0.051000
     23 OAS        -6.0050   -1.8090    4.1410 os        1 7DR     -0.328900
     24 CAU        -3.5850    0.7890    5.2160 ca        1 7DR     -0.047300
     25 CAW        -5.4280   -0.6360    4.5900 ca        1 7DR      0.125100
     26 CAX        -6.8000    2.7050    5.6450 cp        1 7DR     -0.041000
     27 CAY        -5.8640    1.6230    5.3380 cp        1 7DR     -0.005000
     28 HAA         4.0000    0.7890    2.9880 hc        1 7DR      0.040367
     29 HAAA        2.6840    1.8940    3.5620 hc        1 7DR      0.040367
     30 HAAB        3.6400    0.9280    4.7600 hc        1 7DR      0.040367
     31 HAB        -4.5370   -3.1810    4.7370 h1        1 7DR      0.046033
     32 HABA       -5.7900   -3.6920    3.4910 h1        1 7DR      0.046033
     33 HABB       -4.4130   -2.5720    3.0100 h1        1 7DR      0.046033
     34 HNAC        1.9520   -0.8220   -2.0050 hn        1 7DR      0.431300
     35 HNAA        3.3200   -1.0010   -1.0230 hn        1 7DR      0.431300
     36 HNAD       -2.2170    0.3340   -0.1480 hn        1 7DR      0.438800
     37 HNAB       -2.3190    0.6230    1.5270 hn        1 7DR      0.438800
     38 HAG        -9.2960    5.5890    6.4650 ha        1 7DR      0.132000
     39 HAH        -9.8440    3.2410    7.1080 ha        1 7DR      0.132500
     40 HAI        -7.1490    6.0890    5.2950 ha        1 7DR      0.132500
     41 HAJ        -8.2530    1.3970    6.5860 ha        1 7DR      0.136500
     42 HAK        -5.5550    4.2500    4.7680 ha        1 7DR      0.136500
     43 HAL        -3.3330   -1.2460    4.5290 ha        1 7DR      0.147000
     44 HAM        -4.1140    2.7860    5.8700 ha        1 7DR      0.137000
     45 HAN        -7.4180    0.2180    4.7340 ha        1 7DR      0.153000
     46 HAO         1.4180   -0.1140    4.4550 hc        1 7DR      0.063200
     47 HAOA        2.7160   -1.1990    3.8120 hc        1 7DR      0.063200
     48 HAP        -1.7950    0.3660    6.3110 hc        1 7DR      0.067700
     49 HAPA       -1.9210    2.0730    5.7070 hc        1 7DR      0.067700
@<TRIPOS>BOND
     1    1    2 ar  
     2    1    6 ar  
     3    2    3 ar  
     4    2    9 1   
     5    3    4 ar  
     6    4    5 ar  
     7    4   21 1   
     8    5    6 ar  
     9    5   12 1   
    10    6   10 1   
    11    7   21 1   
    12    7   28 1   
    13    7   29 1   
    14    7   30 1   
    15    8   23 1   
    16    8   31 1   
    17    8   32 1   
    18    8   33 1   
    19    9   34 1   
    20    9   35 1   
    21   10   36 1   
    22   10   37 1   
    23   11   12 3   
    24   11   22 1   
    25   13   14 ar  
    26   13   15 ar  
    27   13   38 1   
    28   14   16 ar  
    29   14   39 1   
    30   15   17 ar  
    31   15   40 1   
    32   16   26 ar  
    33   16   41 1   
    34   17   26 ar  
    35   17   42 1   
    36   18   24 ar  
    37   18   25 ar  
    38   18   43 1   
    39   19   24 ar  
    40   19   27 ar  
    41   19   44 1   
    42   20   25 ar  
    43   20   27 ar  
    44   20   45 1   
    45   21   46 1   
    46   21   47 1   
    47   22   24 1   
    48   22   48 1   
    49   22   49 1   
    50   23   25 1   
    51   26   27 1   
@<TRIPOS>SUBSTRUCTURE
     1 7DR         1 TEMP              0 ****  ****    0 ROOT
