@<TRIPOS>MOLECULE
molecule
   44    46     1     0     0
SMALL
bcc


@<TRIPOS>ATOM
      1 O3G          0.0000     0.0000     0.0000 o          1 7DT      -0.848833
      2 PG           1.6090     0.0000     0.0000 p5         1 7DT       1.347900
      3 O2G          2.1030     0.0000     1.3950 o          1 7DT      -0.848833
      4 O1G          2.1460    -1.3150    -0.7590 o          1 7DT      -0.848833
      5 O3B          2.1470     1.3140    -0.7590 os         1 7DT      -0.736800
      6 PB           2.3310     2.8560    -0.3320 p5         1 7DT       1.517800
      7 O2B          1.1760     3.2800     0.4910 o          1 7DT      -0.873500
      8 O1B          3.6870     3.0180     0.5210 o          1 7DT      -0.873500
      9 O3A          2.4150     3.7720    -1.6530 os         1 7DT      -0.722800
     10 PA           2.2900     5.3540    -1.9260 p5         1 7DT       1.440800
     11 O1A          3.6840     6.0730    -1.5620 o          1 7DT      -0.855000
     12 O2A          1.2100     5.9160    -1.0850 o          1 7DT      -0.855000
     13 O5'          1.9460     5.6050    -3.4790 os         1 7DT      -0.584200
     14 C5'          1.6710     6.8990    -4.0160 c3         1 7DT       0.241400
     15 C4'          1.3860     6.7810    -5.5140 c3         1 7DT       0.123100
     16 O4'          0.1240     6.1140    -5.7350 os         1 7DT      -0.362600
     17 C1'         -0.2750     6.4880    -7.0720 c3         1 7DT       0.248800
     18 N9          -1.7180     6.3000    -7.2460 na         1 7DT      -0.160100
     19 C8          -2.6370     6.2920    -6.2290 cc         1 7DT      -0.101100
     20 C20         -3.8690     6.1020    -6.7300 cd         1 7DT      -0.213200
     21 C5          -3.7220     5.9800    -8.1790 ca         1 7DT      -0.346400
     22 C6          -4.5990     5.7750    -9.2540 ca         1 7DT       0.620200
     23 N6          -5.9590     5.6390    -9.0430 nv         1 7DT      -1.067500
     24 N1          -4.0900     5.7150   -10.4810 nb         1 7DT      -0.799000
     25 C2          -2.7920     5.8440   -10.6870 ca         1 7DT       0.619900
     26 N3          -1.9320     6.0370    -9.7100 nb         1 7DT      -0.805000
     27 C4          -2.3450     6.1120    -8.4460 ca         1 7DT       0.504800
     28 C2'          0.0900     7.9850    -7.1890 c3         1 7DT       0.075100
     29 O2'          0.5750     8.2800    -8.5000 oh         1 7DT      -0.573800
     30 C3'          1.2080     8.1810    -6.1410 c3         1 7DT       0.082100
     31 O3'          2.4180     8.6050    -6.7720 oh         1 7DT      -0.582800
     32 H5           0.8070     7.3210    -3.5170 h1         1 7DT       0.026200
     33 H6           2.5270     7.5440    -3.8620 h1         1 7DT       0.026200
     34 H7           2.1840     6.2460    -6.0140 h1         1 7DT       0.080700
     35 H8           0.2770     5.9090    -7.8030 h2         1 7DT       0.096700
     36 H9          -2.4050     6.4190    -5.1780 h4         1 7DT       0.195000
     37 H10         -4.7940     6.0500    -6.1680 ha         1 7DT       0.138000
     38 H11         -6.5520     6.4450    -9.0670 hn         1 7DT       0.406300
     39 H12         -6.3550     4.7310    -8.9020 hn         1 7DT       0.406300
     40 H13         -2.4190     5.7890   -11.7030 h5         1 7DT       0.017100
     41 H14         -0.7670     8.6020    -6.9480 h1         1 7DT       0.040700
     42 H15          0.2400     9.1160    -8.7780 ho         1 7DT       0.380000
     43 H16          0.8960     8.8940    -5.3870 h1         1 7DT       0.044700
     44 H17          2.6490     9.4650    -6.4630 ho         1 7DT       0.382000
@<TRIPOS>BOND
     1     7     6 1   
     2    12    10 1   
     3    11    10 1   
     4    10     9 1   
     5    10    13 1   
     6     6     9 1   
     7     6     8 1   
     8     6     5 1   
     9     5     2 1   
    10     3     2 1   
    11    13    14 1   
    12    20    19 2   
    13    20    21 1   
    14    23    22 1   
    15    19    18 1   
    16     2     4 1   
    17     2     1 1   
    18    21    22 ar  
    19    21    27 ar  
    20    22    24 ar  
    21    14    15 1   
    22    16    15 1   
    23    16    17 1   
    24    18    27 1   
    25    18    17 1   
    26    27    26 ar  
    27    24    25 ar  
    28    15    30 1   
    29    17    28 1   
    30    26    25 ar  
    31    28    30 1   
    32    28    29 1   
    33    30    31 1   
    34    14    32 1   
    35    14    33 1   
    36    15    34 1   
    37    17    35 1   
    38    19    36 1   
    39    20    37 1   
    40    23    38 1   
    41    23    39 1   
    42    25    40 1   
    43    28    41 1   
    44    29    42 1   
    45    30    43 1   
    46    31    44 1   
@<TRIPOS>SUBSTRUCTURE
     1 7DT         1 TEMP              0 ****  ****    0 ROOT
