@<TRIPOS>MOLECULE
molecule
   89    90     1     0     0
SMALL
bcc


@<TRIPOS>ATOM
      1 NDJ          0.0000     0.0000     0.0000 ne         1 7DU      -0.241400
      2 CDG          1.3670     0.0000     0.0000 ca         1 7DU       0.129400
      3 CDH          2.0690     0.0000     1.2090 ca         1 7DU      -0.102000
      4 CDI          3.4470    -0.0000     1.2020 ca         1 7DU      -0.120000
      5 CDF          2.0700    -0.0060    -1.2070 ca         1 7DU      -0.102000
      6 CDE          3.4490    -0.0070    -1.1980 ca         1 7DU      -0.120000
      7 CDD          4.1370    -0.0000     0.0020 ca         1 7DU      -0.123300
      8 CDC          5.6440    -0.0010     0.0040 c3         1 7DU       0.160300
      9 NDB          6.1330    -1.3810     0.0050 ns         1 7DU      -0.566900
     10 CAZ          7.4580    -1.6270     0.0060 c          1 7DU       0.645100
     11 OBB          8.2450    -0.7050     0.0050 o          1 7DU      -0.626100
     12 CAY          7.9600    -3.0490     0.0060 c3         1 7DU       0.035700
     13 CAX          7.4500    -3.7690     1.2560 c3         1 7DU      -0.139100
     14 NBA          9.4250    -3.0480     0.0070 ns         1 7DU      -0.557900
     15 CAN         10.0990    -4.1060    -0.4850 c          1 7DU       0.651100
     16 OAP          9.4930    -5.0580    -0.9290 o          1 7DU      -0.597100
     17 CAM         11.6070    -4.1050    -0.4830 c3         1 7DU       0.102700
     18 CAW         12.1160    -2.9240    -1.3110 c3         1 7DU      -0.224400
     19 CAR         13.6410    -2.8490    -1.2080 c3         1 7DU      -0.064400
     20 CAQ         14.1520    -1.6680    -2.0350 c3         1 7DU       0.244800
     21 NAV         15.6120    -1.5970    -1.9370 nu         1 7DU      -0.861200
     22 CAU         16.2990    -0.6100    -2.6020 c2         1 7DU       0.681100
     23 NAT         17.6690    -0.5430    -2.5090 nz         1 7DU      -0.807600
     24 NAS         15.6510     0.2640    -3.3200 n2         1 7DU      -0.764100
     25 NAO         12.0950    -5.3570    -1.0660 ns         1 7DU      -0.543900
     26 CAJ         13.3180    -5.8210    -0.7380 c          1 7DU       0.650100
     27 OAL         14.0120    -5.2030     0.0410 o          1 7DU      -0.654100
     28 CAI         13.8210    -7.1090    -1.3370 c3         1 7DU       0.030700
     29 CAH         12.8760    -8.2520    -0.9570 c3         1 7DU      -0.124100
     30 NAK         15.1630    -7.3950    -0.8250 ns         1 7DU      -0.533900
     31 C           16.0090    -8.1600    -1.5420 c          1 7DU       0.630100
     32 O           15.6600    -8.6130    -2.6130 o          1 7DU      -0.583100
     33 CA          17.3910    -8.4530    -1.0170 c3         1 7DU       0.012500
     34 N           17.9280    -9.6430    -1.6900 nz         1 7DU      -0.837600
     35 CB          18.3050    -7.2560    -1.2870 c3         1 7DU       0.119400
     36 OG          19.5810    -7.4870    -0.6860 oh         1 7DU      -0.614800
     37 ODS         -6.7660    -1.3430     1.1120 oh         1 7DU      -0.602800
     38 CDO         -4.7820     0.0060     1.1130 ca         1 7DU      -0.048300
     39 CDP         -4.0930     0.0060    -0.0870 ca         1 7DU      -0.121500
     40 CDQ         -2.7140     0.0060    -0.0940 ca         1 7DU      -0.086000
     41 CDN         -4.0950     0.0120     2.3140 ca         1 7DU      -0.121500
     42 CDM         -2.7160     0.0120     2.3230 ca         1 7DU      -0.086000
     43 CDL         -2.0130     0.0060     1.1150 ca         1 7DU       0.084400
     44 NDK         -0.6460     0.0060     1.1160 nf         1 7DU      -0.199400
     45 H1           1.5300    -0.0000     2.1490 ha         1 7DU       0.157500
     46 H2           3.9920     0.0020     2.1380 ha         1 7DU       0.135500
     47 H3           1.5340    -0.0110    -2.1490 ha         1 7DU       0.157500
     48 H4           3.9950    -0.0090    -2.1340 ha         1 7DU       0.135500
     49 H5           6.0060     0.5100    -0.8800 h1         1 7DU       0.062700
     50 H6           6.0040     0.5100     0.8890 h1         1 7DU       0.062700
     51 H7           5.4830    -2.1420    -0.0180 hn         1 7DU       0.326500
     52 H8           7.6000    -3.5600    -0.8780 h1         1 7DU       0.094700
     53 H9           7.0630    -4.3170     0.4050 hc         1 7DU       0.072367
     54 H10          6.7020    -3.2230     1.8190 hc         1 7DU       0.072367
     55 H11          8.2130    -4.2910     1.8200 hc         1 7DU       0.072367
     56 H12          9.9240    -2.2660     0.3840 hn         1 7DU       0.334500
     57 H13         11.9670    -4.0150     0.5340 h1         1 7DU       0.078700
     58 H14         12.2350    -2.9270    -0.2350 hc         1 7DU       0.105200
     59 H15         11.5240    -2.0320    -1.4790 hc         1 7DU       0.105200
     60 H16         13.9270    -2.7150    -0.1720 hc         1 7DU       0.050700
     61 H17         14.0740    -3.7680    -1.5850 hc         1 7DU       0.050700
     62 H18         13.7200    -0.7500    -1.6580 h1         1 7DU       0.081700
     63 H19         13.8660    -1.8030    -3.0720 h1         1 7DU       0.081700
     64 H20         16.1090    -2.2690    -1.3850 hn         1 7DU       0.447800
     65 H21         17.9740     0.3840    -2.7310 hn         1 7DU       0.466133
     66 H22         18.0780    -1.1930    -3.1510 hn         1 7DU       0.466133
     67 H23         16.1500     0.9840    -3.8050 hn         1 7DU       0.445400
     68 H25         11.5230    -5.8660    -1.7100 hn         1 7DU       0.354500
     69 H26         13.8580    -7.0150    -2.4160 h1         1 7DU       0.099700
     70 H27         12.8770    -8.2010    -2.0390 hc         1 7DU       0.079033
     71 H28         13.3670    -9.1260    -0.5460 hc         1 7DU       0.079033
     72 H29         11.9510    -7.9370    -0.4910 hc         1 7DU       0.079033
     73 H30         15.4390    -7.0520     0.0730 hn         1 7DU       0.347500
     74 H31         17.3400    -8.6350     0.0500 hx         1 7DU       0.134700
     75 H32         17.9030    -9.8630    -0.7140 hn         1 7DU       0.490467
     76 H33         17.2640   -10.1430    -2.2470 hn         1 7DU       0.490467
     77 H35         17.8630    -6.3620    -0.8640 h1         1 7DU       0.066700
     78 H36         18.4270    -7.1290    -2.3550 h1         1 7DU       0.066700
     79 H37         20.1700    -6.7910    -0.9240 ho         1 7DU       0.450000
     80 H38         -6.6660     0.5200     0.2370 h1         1 7DU       0.031200
     81 H39         -6.6360     0.5100     2.0060 h1         1 7DU       0.031200
     82 H40         -7.7080    -1.3430     1.1420 ho         1 7DU       0.408000
     83 H43         -4.6410     0.0170     3.2500 ha         1 7DU       0.142500
     84 H44         -2.1790     0.0140     3.2640 ha         1 7DU       0.150500
     85 H41         -4.6380     0.0060    -1.0230 ha         1 7DU       0.142500
     86 CDR         -6.2900     0.0050     1.1120 c3         1 7DU       0.181700
     87 HAT3        17.9510    -0.7730    -1.5760 hn         1 7DU       0.466133
     88 HN3         18.8550    -9.5350    -2.0510 hn         1 7DU       0.490467
     89 H42         -2.1760     0.0030    -1.0340 ha         1 7DU       0.150500
@<TRIPOS>BOND
     1    24    22 2   
     2    22    23 1   
     3    22    21 1   
     4    21    20 1   
     5    20    19 1   
     6    19    18 1   
     7    18    17 1   
     8    36    35 1   
     9    35    33 1   
    10    17    25 1   
    11    17    15 1   
    12    25    26 1   
    13    33    34 1   
    14    33    31 1   
    15    15    14 1   
    16    15    16 2   
    17    14    12 1   
    18    13    12 1   
    19    12    10 1   
    20    31    30 1   
    21    31    32 2   
    22    30    28 1   
    23    26    28 1   
    24    26    27 2   
    25    29    28 1   
    26    10    11 2   
    27    10     9 1   
    28     9     8 1   
    29     4     3 ar  
    30     4     7 ar  
    31     3     2 ar  
    32     8     7 1   
    33     7     6 ar  
    34     2     1 1   
    35     2     5 ar  
    36     1    44 2   
    37     6     5 ar  
    38    42    41 ar  
    39    42    43 ar  
    40    41    38 ar  
    41    44    43 1   
    42    43    40 ar  
    43    37    86 1   
    44    38    86 1   
    45    38    39 ar  
    46    40    39 ar  
    47     3    45 1   
    48     4    46 1   
    49     5    47 1   
    50     6    48 1   
    51     8    49 1   
    52     8    50 1   
    53     9    51 1   
    54    12    52 1   
    55    13    53 1   
    56    13    54 1   
    57    13    55 1   
    58    14    56 1   
    59    17    57 1   
    60    18    58 1   
    61    18    59 1   
    62    19    60 1   
    63    19    61 1   
    64    20    62 1   
    65    20    63 1   
    66    21    64 1   
    67    23    65 1   
    68    23    66 1   
    69    24    67 1   
    70    25    68 1   
    71    28    69 1   
    72    29    70 1   
    73    29    71 1   
    74    29    72 1   
    75    30    73 1   
    76    33    74 1   
    77    34    75 1   
    78    34    76 1   
    79    35    77 1   
    80    35    78 1   
    81    36    79 1   
    82    86    80 1   
    83    86    81 1   
    84    37    82 1   
    85    39    85 1   
    86    40    89 1   
    87    41    83 1   
    88    42    84 1   
    89    87    23 1   
    90    88    34 1   
@<TRIPOS>SUBSTRUCTURE
     1 7DU         1 TEMP              0 ****  ****    0 ROOT
