@<TRIPOS>MOLECULE
7DU
   89    90     1     0     0
SMALL
bcc


@<TRIPOS>ATOM
      1 NDJ          0.0000     0.0000     0.0000 ne         1 7DU      -0.203400
      2 CDG          1.3670     0.0000     0.0000 ca         1 7DU       0.101400
      3 CDH          2.0690     0.0000     1.2090 ca         1 7DU      -0.078500
      4 CDI          3.4470    -0.0000     1.2020 ca         1 7DU      -0.088000
      5 CDF          2.0700    -0.0060    -1.2070 ca         1 7DU      -0.078500
      6 CDE          3.4490    -0.0070    -1.1980 ca         1 7DU      -0.088000
      7 CDD          4.1370    -0.0000     0.0020 ca         1 7DU      -0.140300
      8 CDC          5.6440    -0.0010     0.0040 c3         1 7DU       0.109300
      9 NDB          6.1330    -1.3810     0.0050 ns         1 7DU      -0.158900
     10 CAZ          7.4580    -1.6270     0.0060 c          1 7DU       0.554100
     11 OBB          8.2450    -0.7050     0.0050 o          1 7DU      -0.673100
     12 CAY          7.9600    -3.0490     0.0060 c3         1 7DU      -0.064300
     13 CAX          7.4500    -3.7690     1.2560 c3         1 7DU      -0.060100
     14 NBA          9.4250    -3.0480     0.0070 ns         1 7DU      -0.143900
     15 CAN         10.0990    -4.1060    -0.4850 c          1 7DU       0.552100
     16 OAP          9.4930    -5.0580    -0.9290 o          1 7DU      -0.641100
     17 CAM         11.6070    -4.1050    -0.4830 c3         1 7DU       0.023700
     18 CAW         12.1160    -2.9240    -1.3110 c3         1 7DU      -0.216400
     19 CAR         13.6410    -2.8490    -1.2080 c3         1 7DU       0.008600
     20 CAQ         14.1520    -1.6680    -2.0350 c3         1 7DU       0.162800
     21 NAV         15.6120    -1.5970    -1.9370 nu         1 7DU      -0.496200
     22 CAU         16.2990    -0.6100    -2.6020 c2         1 7DU       0.232100
     23 NAT         17.6690    -0.5430    -2.5090 nz         1 7DU       0.200400
     24 NAS         15.6510     0.2640    -3.3200 n2         1 7DU      -0.597100
     25 NAO         12.0950    -5.3570    -1.0660 ns         1 7DU      -0.130900
     26 CAJ         13.3180    -5.8210    -0.7380 c          1 7DU       0.560100
     27 OAL         14.0120    -5.2030     0.0410 o          1 7DU      -0.704100
     28 CAI         13.8210    -7.1090    -1.3370 c3         1 7DU      -0.074300
     29 CAH         12.8760    -8.2520    -0.9570 c3         1 7DU      -0.037100
     30 NAK         15.1630    -7.3950    -0.8250 ns         1 7DU      -0.097900
     31 C           16.0090    -8.1600    -1.5420 c          1 7DU       0.533100
     32 O           15.6600    -8.6130    -2.6130 o          1 7DU      -0.636100
     33 CA          17.3910    -8.4530    -1.0170 c3         1 7DU      -0.151500
     34 N           17.9280    -9.6430    -1.6900 nz         1 7DU       0.010400
     35 CB          18.3050    -7.2560    -1.2870 c3         1 7DU       0.220400
     36 OG          19.5810    -7.4870    -0.6860 oh         1 7DU      -0.596800
     37 ODS         -6.7660    -1.3430     1.1120 oh         1 7DU      -0.587800
     38 CDO         -4.7820     0.0060     1.1130 ca         1 7DU      -0.066300
     39 CDP         -4.0930     0.0060    -0.0870 ca         1 7DU      -0.090500
     40 CDQ         -2.7140     0.0060    -0.0940 ca         1 7DU      -0.061000
     41 CDN         -4.0950     0.0120     2.3140 ca         1 7DU      -0.090500
     42 CDM         -2.7160     0.0120     2.3230 ca         1 7DU      -0.061000
     43 CDL         -2.0130     0.0060     1.1150 ca         1 7DU       0.040400
     44 NDK         -0.6460     0.0060     1.1160 nf         1 7DU      -0.134400
     45 H1           1.5300    -0.0000     2.1490 ha         1 7DU       0.127000
     46 H2           3.9920     0.0020     2.1380 ha         1 7DU       0.107000
     47 H3           1.5340    -0.0110    -2.1490 ha         1 7DU       0.127000
     48 H4           3.9950    -0.0090    -2.1340 ha         1 7DU       0.107000
     49 H5           6.0040     0.5100     0.8890 h1         1 7DU       0.032700
     50 H6           6.0060     0.5100    -0.8800 h1         1 7DU       0.032700
     51 H7           5.4830    -2.1420    -0.0050 hn         1 7DU       0.184500
     52 H8           7.6000    -3.5600    -0.8780 h1         1 7DU       0.070700
     53 H9           7.0630    -4.3170     0.4050 hc         1 7DU       0.042033
     54 H10          8.2130    -4.2910     1.8200 hc         1 7DU       0.042033
     55 H11          6.7020    -3.2240     1.8190 hc         1 7DU       0.042033
     56 H12          9.9240    -2.2760     0.4040 hn         1 7DU       0.193500
     57 H13         11.9670    -4.0150     0.5340 h1         1 7DU       0.053700
     58 H14         12.2350    -2.9270    -0.2350 hc         1 7DU       0.082200
     59 H15         11.5240    -2.0320    -1.4790 hc         1 7DU       0.082200
     60 H16         14.0740    -3.7680    -1.5850 hc         1 7DU       0.028700
     61 H17         13.9270    -2.7150    -0.1720 hc         1 7DU       0.028700
     62 H18         13.8660    -1.8030    -3.0720 h1         1 7DU       0.037700
     63 H19         13.7200    -0.7500    -1.6580 h1         1 7DU       0.037700
     64 H20         16.1100    -2.2680    -1.3850 hn         1 7DU       0.300800
     65 H21         18.0030     0.2310    -3.0470 hn         1 7DU       0.221133
     66 H22         17.9330    -0.4220    -1.5510 hn         1 7DU       0.221133
     67 H23         14.6540     0.2170    -3.3890 hn         1 7DU       0.388400
     68 H25         11.5130    -5.8800    -1.6900 hn         1 7DU       0.215500
     69 H26         13.8580    -7.0150    -2.4160 h1         1 7DU       0.073700
     70 H27         12.8770    -8.2010    -2.0390 hc         1 7DU       0.045033
     71 H28         11.9510    -7.9370    -0.4910 hc         1 7DU       0.045033
     72 H29         13.3670    -9.1260    -0.5460 hc         1 7DU       0.045033
     73 H30         15.4470    -7.0340     0.0640 hn         1 7DU       0.203500
     74 H31         17.3400    -8.6350     0.0500 hx         1 7DU       0.108700
     75 H32         17.9030    -9.8630    -0.7140 hn         1 7DU       0.263133
     76 H33         17.2640   -10.1430    -2.2470 hn         1 7DU       0.263133
     77 H35         18.4260    -7.1290    -2.3550 h1         1 7DU       0.019200
     78 H36         17.8630    -6.3620    -0.8640 h1         1 7DU       0.019200
     79 H37         20.1930    -6.8380    -0.9910 ho         1 7DU       0.438000
     80 H38         -6.6660     0.5200     0.2370 h1         1 7DU      -0.008300
     81 H39         -6.6360     0.5100     2.0060 h1         1 7DU      -0.008300
     82 H40         -7.7080    -1.3430     1.1280 ho         1 7DU       0.395000
     83 H43         -4.6410     0.0170     3.2500 ha         1 7DU       0.113500
     84 H44         -2.1790     0.0140     3.2640 ha         1 7DU       0.119000
     85 H41         -4.6380     0.0060    -1.0230 ha         1 7DU       0.113500
     86 CDR         -6.2900     0.0050     1.1120 c3         1 7DU       0.276700
     87 HAT3        18.0680    -1.3910    -2.8610 hn         1 7DU       0.221133
     88 HN3         18.8490    -9.5290    -2.0660 hn         1 7DU       0.263133
     89 H42         -2.1760     0.0030    -1.0340 ha         1 7DU       0.119000
@<TRIPOS>BOND
     1     1     2 1   
     2     1    44 2   
     3     2     3 ar  
     4     2     5 ar  
     5     3     4 ar  
     6     3    45 1   
     7     4     7 ar  
     8     4    46 1   
     9     5     6 ar  
    10     5    47 1   
    11     6     7 ar  
    12     6    48 1   
    13     7     8 1   
    14     8     9 1   
    15     8    49 1   
    16     8    50 1   
    17     9    10 1   
    18     9    51 1   
    19    10    11 2   
    20    10    12 1   
    21    12    13 1   
    22    12    14 1   
    23    12    52 1   
    24    13    53 1   
    25    13    54 1   
    26    13    55 1   
    27    14    15 1   
    28    14    56 1   
    29    15    16 2   
    30    15    17 1   
    31    17    18 1   
    32    17    25 1   
    33    17    57 1   
    34    18    19 1   
    35    18    58 1   
    36    18    59 1   
    37    19    20 1   
    38    19    60 1   
    39    19    61 1   
    40    20    21 1   
    41    20    62 1   
    42    20    63 1   
    43    21    22 1   
    44    21    64 1   
    45    22    23 1   
    46    22    24 2   
    47    23    65 1   
    48    23    66 1   
    49    23    87 1   
    50    24    67 1   
    51    25    26 1   
    52    25    68 1   
    53    26    27 2   
    54    26    28 1   
    55    28    29 1   
    56    28    30 1   
    57    28    69 1   
    58    29    70 1   
    59    29    71 1   
    60    29    72 1   
    61    30    31 1   
    62    30    73 1   
    63    31    32 2   
    64    31    33 1   
    65    33    34 1   
    66    33    35 1   
    67    33    74 1   
    68    34    75 1   
    69    34    76 1   
    70    34    88 1   
    71    35    36 1   
    72    35    77 1   
    73    35    78 1   
    74    36    79 1   
    75    37    82 1   
    76    37    86 1   
    77    38    39 ar  
    78    38    41 ar  
    79    38    86 1   
    80    39    40 ar  
    81    39    85 1   
    82    40    43 ar  
    83    40    89 1   
    84    41    42 ar  
    85    41    83 1   
    86    42    43 ar  
    87    42    84 1   
    88    43    44 1   
    89    80    86 1   
    90    81    86 1   
@<TRIPOS>SUBSTRUCTURE
     1 7DU         1 TEMP              0 ****  ****    0 ROOT
