@<TRIPOS>MOLECULE
molecule
   17    17     1     0     0
SMALL
bcc


@<TRIPOS>ATOM
      1 O9           0.0000     0.0000     0.0000 oh         1 7DV      -0.520100
      2 C4           1.3600     0.0000     0.0000 ca         1 7DV       0.088100
      3 C5           2.0530     0.0000     1.2000 ca         1 7DV      -0.133000
      4 C6           3.4350    -0.0000     1.1990 ca         1 7DV      -0.171000
      5 C3           2.0530    -0.0050    -1.2020 ca         1 7DV      -0.135000
      6 C2           3.4340    -0.0060    -1.2030 ca         1 7DV      -0.085300
      7 C1           4.1270     0.0000    -0.0020 ca         1 7DV       0.106100
      8 O1           5.4880     0.0000    -0.0020 oh         1 7DV      -0.511100
      9 C7           4.1870    -0.0110    -2.5080 c3         1 7DV      -0.038800
     10 H1          -0.3140     0.8880    -0.0440 ho         1 7DV       0.417000
     11 H2           1.5120    -0.0000     2.1390 ha         1 7DV       0.142000
     12 H3           3.9770     0.0020     2.1370 ha         1 7DV       0.138000
     13 H4           1.5100    -0.0100    -2.1400 ha         1 7DV       0.145000
     14 H5           5.8020     0.7070     0.5370 ho         1 7DV       0.419000
     15 H6           4.8970    -0.8290    -2.5120 hc         1 7DV       0.047033
     16 H7           4.7150     0.9270    -2.6230 hc         1 7DV       0.047033
     17 H8           3.4890    -0.1360    -3.3270 hc         1 7DV       0.047033
@<TRIPOS>BOND
     1     1     2 1
     2     2     3 ar
     3     2     5 ar
     4     3     4 ar
     5     5     6 ar
     6     4     7 ar
     7     6     7 ar
     8     6     9 1
     9     7     8 1
    10     1    10 1
    11     3    11 1
    12     4    12 1
    13     5    13 1
    14     8    14 1
    15     9    15 1
    16     9    16 1
    17     9    17 1
@<TRIPOS>SUBSTRUCTURE
     1 7DV         1 TEMP              0 ****  ****    0 ROOT
