@<TRIPOS>MOLECULE
molecule
   61    63     1     0     0
SMALL
bcc


@<TRIPOS>ATOM
      1 CBF          0.0000     0.0000     0.0000 ca         1 7DY      -0.268300
      2 CBG          1.3840     0.0000     0.0000 ca         1 7DY      -0.015000
      3 CBH          2.0460     0.0000     1.2200 ca         1 7DY      -0.351600
      4 CBJ          3.5520     0.0010     1.2690 c3         1 7DY       0.683200
      5 FAC          4.0550    -0.6590     0.1420 f          1 7DY      -0.222967
      6 FAD          4.0170     1.3210     1.2840 f          1 7DY      -0.222967
      7 FAB          3.9810    -0.6580     2.4260 f          1 7DY      -0.222967
      8 CBI          1.3100     0.0000     2.3870 ca         1 7DY       0.505200
      9 NAH         -0.0100    -0.0000     2.3560 nb         1 7DY      -0.779000
     10 CBD         -0.6760     0.0050     1.2140 ca         1 7DY       0.687600
     11 OAE         -2.0330     0.0040     1.2280 os         1 7DY      -0.398100
     12 CAP         -2.6690    -0.0030     2.5080 c3         1 7DY       0.088800
     13 CAT         -2.2490    -1.2550     3.2790 c3         1 7DY      -0.117600
     14 CAU         -2.2500     1.2430     3.2920 c3         1 7DY      -0.117600
     15 CAQ         -4.1650    -0.0030     2.3250 c          1 7DY       0.669100
     16 OAF         -4.6400     0.0030     1.2090 o          1 7DY      -0.579100
     17 NAG         -4.9740    -0.0090     3.4020 ns         1 7DY      -0.584900
     18 CAK         -6.4290    -0.0090     3.2250 c3         1 7DY       0.121700
     19 CAN         -6.9190    -1.4450     3.0310 c3         1 7DY      -0.108100
     20 CAJ         -7.0940     0.5940     4.4640 c3         1 7DY      -0.033400
     21 CAM         -8.5860     0.6370     4.2620 ca         1 7DY      -0.079300
     22 CAR         -9.4200    -0.0180     5.1450 ca         1 7DY      -0.081000
     23 CAX        -10.8020     0.0240     4.9570 ca         1 7DY      -0.015000
     24 CBE        -11.6730    -0.6530     5.8690 cg         1 7DY       0.237800
     25 NAI        -12.3480    -1.1990     6.6020 n1         1 7DY      -0.357800
     26 CAZ        -11.3320     0.7300     3.8750 ca         1 7DY      -0.091000
     27 CAY        -10.4870     1.3800     3.0000 ca         1 7DY      -0.130000
     28 CAS         -9.1180     1.3390     3.1950 ca         1 7DY      -0.108000
     29 CAL         -6.5670     2.0130     4.6860 c3         1 7DY      -0.030100
     30 CAO         -7.1270     2.5620     5.9730 ca         1 7DY      -0.088300
     31 CAV         -8.3260     3.2500     5.9670 ca         1 7DY      -0.115500
     32 CBA         -8.8410     3.7530     7.1460 ca         1 7DY      -0.118000
     33 CBC         -8.1560     3.5680     8.3350 ca         1 7DY       0.028400
     34 ClAA        -8.8020     4.1990     9.8170 cl         1 7DY      -0.106400
     35 CBB         -6.9560     2.8790     8.3400 ca         1 7DY      -0.118000
     36 CAW         -6.4460     2.3710     7.1600 ca         1 7DY      -0.115500
     37 H1          -0.5490     0.0020    -0.9340 ha         1 7DY       0.166000
     38 H2           1.9380    -0.0040    -0.9310 ha         1 7DY       0.160000
     39 H3           1.8210    -0.0020     3.3420 h4         1 7DY       0.038100
     40 H4          -3.1150    -1.6880     3.7640 hc         1 7DY       0.056367
     41 H5          -1.5120    -0.9890     4.0270 hc         1 7DY       0.056367
     42 H6          -1.8220    -1.9760     2.5920 hc         1 7DY       0.056367
     43 H7          -2.7010     1.2180     4.2770 hc         1 7DY       0.056367
     44 H8          -1.1720     1.2630     3.3890 hc         1 7DY       0.056367
     45 H9          -2.5820     2.1300     2.7650 hc         1 7DY       0.056367
     46 H10         -4.5830    -0.0590     4.3220 hn         1 7DY       0.315500
     47 H11         -6.6860     0.5810     2.3540 h1         1 7DY       0.084700
     48 H12         -6.2310    -1.9770     2.3850 hc         1 7DY       0.046700
     49 H13         -6.9700    -1.9420     3.9920 hc         1 7DY       0.046700
     50 H14         -7.9030    -1.4330     2.5780 hc         1 7DY       0.046700
     51 H15         -6.8650    -0.0150     5.3300 hc         1 7DY       0.063700
     52 H16         -9.0060    -0.5150     6.0140 ha         1 7DY       0.145000
     53 H17        -12.4040     0.7650     3.7220 ha         1 7DY       0.144000
     54 H18        -10.8970     1.9300     2.1610 ha         1 7DY       0.141000
     55 H19         -8.4600     1.8520     2.5050 ha         1 7DY       0.140000
     56 H20         -5.4850     1.9920     4.7440 hc         1 7DY       0.057200
     57 H21         -6.8720     2.6450     3.8610 hc         1 7DY       0.057200
     58 H22         -8.8620     3.3950     5.0370 ha         1 7DY       0.136500
     59 H23         -9.7810     4.2930     7.1410 ha         1 7DY       0.146000
     60 H24         -6.4200     2.7310     9.2690 ha         1 7DY       0.146000
     61 H25         -5.5060     1.8320     7.1650 ha         1 7DY       0.136500
@<TRIPOS>BOND
     1    13    12 1   
     2    12    11 1   
     3    12    14 1   
     4    12    15 1   
     5    11    10 1   
     6     9    10 ar  
     7     9     8 ar  
     8     5     4 1   
     9    10     1 ar  
    10     8     3 ar  
    11    16    15 2   
    12     1     2 ar  
    13     3     2 ar  
    14     3     4 1   
    15    15    17 1   
    16     4     6 1   
    17     4     7 1   
    18    17    18 1   
    19    18    19 1   
    20    18    20 1   
    21    29    30 1   
    22    29    20 1   
    23    31    30 ar  
    24    31    32 ar  
    25    30    36 ar  
    26    20    21 1   
    27    32    33 ar  
    28    28    21 ar  
    29    28    27 ar  
    30    36    35 ar  
    31    21    22 ar  
    32    33    35 ar  
    33    33    34 1   
    34    27    26 ar  
    35    22    23 ar  
    36    26    23 ar  
    37    23    24 1   
    38    24    25 3   
    39     1    37 1   
    40     2    38 1   
    41     8    39 1   
    42    13    40 1   
    43    13    41 1   
    44    13    42 1   
    45    14    43 1   
    46    14    44 1   
    47    14    45 1   
    48    17    46 1   
    49    18    47 1   
    50    19    48 1   
    51    19    49 1   
    52    19    50 1   
    53    20    51 1   
    54    22    52 1   
    55    26    53 1   
    56    27    54 1   
    57    28    55 1   
    58    29    56 1   
    59    29    57 1   
    60    31    58 1   
    61    32    59 1   
    62    35    60 1   
    63    36    61 1   
@<TRIPOS>SUBSTRUCTURE
     1 7DY         1 TEMP              0 ****  ****    0 ROOT
