@<TRIPOS>MOLECULE
7DY
   61    63     1     0     0
SMALL
bcc


@<TRIPOS>ATOM
      1 CBF          0.0000     0.0000     0.0000 ca         1 7DY      -0.253300
      2 CBG          1.3840     0.0000     0.0000 ca         1 7DY       0.031000
      3 CBH          2.0460     0.0000     1.2200 ca         1 7DY      -0.384600
      4 CBJ          3.5520     0.0010     1.2690 c3         1 7DY       0.654200
      5 FAC          4.0550    -0.6590     0.1420 f          1 7DY      -0.207300
      6 FAD          4.0170     1.3210     1.2840 f          1 7DY      -0.207300
      7 FAB          3.9810    -0.6580     2.4260 f          1 7DY      -0.207300
      8 CBI          1.3100     0.0000     2.3870 ca         1 7DY       0.506200
      9 NAH         -0.0100    -0.0000     2.3560 nb         1 7DY      -0.677000
     10 CBD         -0.6760     0.0050     1.2140 ca         1 7DY       0.658600
     11 OAE         -2.0330     0.0040     1.2280 os         1 7DY      -0.379100
     12 CAP         -2.6690    -0.0030     2.5080 c3         1 7DY       0.102800
     13 CAT         -2.2490    -1.2550     3.2790 c3         1 7DY      -0.047600
     14 CAU         -2.2500     1.2430     3.2920 c3         1 7DY      -0.047600
     15 CAQ         -4.1650    -0.0030     2.3250 c          1 7DY       0.576100
     16 OAF         -4.6400     0.0030     1.2090 o          1 7DY      -0.621100
     17 NAG         -4.9740    -0.0090     3.4020 ns         1 7DY      -0.197900
     18 CAK         -6.4290    -0.0090     3.2250 c3         1 7DY       0.018700
     19 CAN         -6.9190    -1.4450     3.0310 c3         1 7DY      -0.020100
     20 CAJ         -7.0940     0.5940     4.4640 c3         1 7DY      -0.002400
     21 CAM         -8.5860     0.6370     4.2620 ca         1 7DY      -0.081300
     22 CAR         -9.4200    -0.0180     5.1450 ca         1 7DY      -0.065000
     23 CAX        -10.8020     0.0240     4.9570 ca         1 7DY       0.032000
     24 CBE        -11.6730    -0.6530     5.8690 cg         1 7DY       0.228800
     25 NAI        -12.3480    -1.1990     6.6020 n1         1 7DY      -0.375800
     26 CAZ        -11.3320     0.7300     3.8750 ca         1 7DY      -0.073000
     27 CAY        -10.4870     1.3800     3.0000 ca         1 7DY      -0.097000
     28 CAS         -9.1180     1.3390     3.1950 ca         1 7DY      -0.086000
     29 CAL         -6.5670     2.0130     4.6860 c3         1 7DY       0.025900
     30 CAO         -7.1270     2.5620     5.9730 ca         1 7DY      -0.095300
     31 CAV         -8.3260     3.2500     5.9670 ca         1 7DY      -0.089500
     32 CBA         -8.8410     3.7530     7.1460 ca         1 7DY      -0.094000
     33 CBC         -8.1560     3.5680     8.3350 ca         1 7DY      -0.035600
     34 ClAA        -8.8020     4.1990     9.8170 cl         1 7DY      -0.021400
     35 CBB         -6.9560     2.8790     8.3400 ca         1 7DY      -0.094000
     36 CAW         -6.4460     2.3710     7.1600 ca         1 7DY      -0.089500
     37 H1          -0.5490     0.0020    -0.9340 ha         1 7DY       0.138000
     38 H2           1.9380    -0.0040    -0.9310 ha         1 7DY       0.124000
     39 H3           1.8210    -0.0020     3.3420 h4         1 7DY      -0.007900
     40 H4          -3.1150    -1.6880     3.7640 hc         1 7DY       0.026700
     41 H5          -1.5120    -0.9890     4.0270 hc         1 7DY       0.026700
     42 H6          -1.8220    -1.9760     2.5920 hc         1 7DY       0.026700
     43 H7          -2.7010     1.2180     4.2770 hc         1 7DY       0.026700
     44 H8          -1.1720     1.2630     3.3890 hc         1 7DY       0.026700
     45 H9          -2.5820     2.1300     2.7650 hc         1 7DY       0.026700
     46 H10         -4.5830    -0.0590     4.3220 hn         1 7DY       0.180500
     47 H11         -6.6860     0.5810     2.3540 h1         1 7DY       0.063700
     48 H12         -6.2310    -1.9770     2.3850 hc         1 7DY       0.015700
     49 H13         -6.9700    -1.9420     3.9920 hc         1 7DY       0.015700
     50 H14         -7.9030    -1.4330     2.5780 hc         1 7DY       0.015700
     51 H15         -6.8650    -0.0150     5.3300 hc         1 7DY       0.039700
     52 H16         -9.0060    -0.5150     6.0140 ha         1 7DY       0.118000
     53 H17        -12.4040     0.7650     3.7220 ha         1 7DY       0.115000
     54 H18        -10.8970     1.9300     2.1610 ha         1 7DY       0.111000
     55 H19         -8.4600     1.8520     2.5050 ha         1 7DY       0.117000
     56 H20         -5.4850     1.9920     4.7440 hc         1 7DY       0.027200
     57 H21         -6.8720     2.6450     3.8610 hc         1 7DY       0.027200
     58 H22         -8.8620     3.3950     5.0370 ha         1 7DY       0.109500
     59 H23         -9.7810     4.2930     7.1410 ha         1 7DY       0.116500
     60 H24         -6.4200     2.7310     9.2690 ha         1 7DY       0.116500
     61 H25         -5.5060     1.8320     7.1650 ha         1 7DY       0.109500
@<TRIPOS>BOND
     1     1     2 ar  
     2     1    10 ar  
     3     1    37 1   
     4     2     3 ar  
     5     2    38 1   
     6     3     4 1   
     7     3     8 ar  
     8     4     5 1   
     9     4     6 1   
    10     4     7 1   
    11     8     9 ar  
    12     8    39 1   
    13     9    10 ar  
    14    10    11 1   
    15    11    12 1   
    16    12    13 1   
    17    12    14 1   
    18    12    15 1   
    19    13    40 1   
    20    13    41 1   
    21    13    42 1   
    22    14    43 1   
    23    14    44 1   
    24    14    45 1   
    25    15    16 2   
    26    15    17 1   
    27    17    18 1   
    28    17    46 1   
    29    18    19 1   
    30    18    20 1   
    31    18    47 1   
    32    19    48 1   
    33    19    49 1   
    34    19    50 1   
    35    20    21 1   
    36    20    29 1   
    37    20    51 1   
    38    21    22 ar  
    39    21    28 ar  
    40    22    23 ar  
    41    22    52 1   
    42    23    24 1   
    43    23    26 ar  
    44    24    25 3   
    45    26    27 ar  
    46    26    53 1   
    47    27    28 ar  
    48    27    54 1   
    49    28    55 1   
    50    29    30 1   
    51    29    56 1   
    52    29    57 1   
    53    30    31 ar  
    54    30    36 ar  
    55    31    32 ar  
    56    31    58 1   
    57    32    33 ar  
    58    32    59 1   
    59    33    34 1   
    60    33    35 ar  
    61    35    36 ar  
    62    35    60 1   
    63    36    61 1   
@<TRIPOS>SUBSTRUCTURE
     1 7DY         1 TEMP              0 ****  ****    0 ROOT
