@<TRIPOS>MOLECULE
7DZ
   51    53     1     0     0
SMALL
bcc


@<TRIPOS>ATOM
      1 C18          0.0000     0.0000     0.0000 c3         1 7DZ       0.060300
      2 C16          7.1870     0.6380    -2.3270 ca         1 7DZ       0.118400
      3 C17          6.4990     0.6480    -1.1280 ca         1 7DZ      -0.155500
      4 C15          8.3230    -0.1450    -2.4700 ca         1 7DZ       0.046100
      5 C14          8.7700    -0.9210    -1.4080 ca         1 7DZ       0.118400
      6 N1           4.2170     0.0000     0.0000 nb         1 7DZ      -0.691000
      7 C13          8.0810    -0.9120    -0.2080 ca         1 7DZ      -0.155500
      8 C12          6.9440    -0.1280    -0.0660 ca         1 7DZ       0.041600
      9 C11          3.8540     2.4160     7.0150 c3         1 7DZ       0.002900
     10 C10          2.7870     0.6780     8.4590 c3         1 7DZ       0.002900
     11 C8           2.4570     0.6200     5.9830 c3         1 7DZ      -0.036400
     12 C7           3.1550     0.7650     4.6290 c3         1 7DZ       0.115800
     13 C6           2.9130     0.2250     2.3550 ca         1 7DZ       0.546200
     14 C5           4.8660     0.0000     1.1550 ca         1 7DZ       0.707900
     15 C4           2.8950     0.1130    -0.0390 ca         1 7DZ       0.473200
     16 C3           2.2010     0.2310     1.1490 ca         1 7DZ      -0.400000
     17 C2           0.2200     0.8270     2.2960 c          1 7DZ       0.614500
     18 C1           1.0810     1.2170     3.4700 c3         1 7DZ       0.040500
     19 N2           4.2360     0.1100     2.3150 nb         1 7DZ      -0.703000
     20 F1           9.8760    -1.6840    -1.5470 f          1 7DZ      -0.116900
     21 F            6.7500     1.3880    -3.3630 f          1 7DZ      -0.116900
     22 N4           6.2480    -0.1190     1.1490 nu         1 7DZ      -0.289300
     23 N            0.8040     0.3600     1.1700 n          1 7DZ       0.037000
     24 O           -0.9870     0.9300     2.3620 o          1 7DZ      -0.656500
     25 N3           2.2460     0.3310     3.5610 nh         1 7DZ      -0.429300
     26 C            1.5560     2.6610     3.2920 c3         1 7DZ      -0.032100
     27 H1           0.3180    -0.9660    -0.3730 h1         1 7DZ       0.023367
     28 H2          -1.0450    -0.0480     0.2810 h1         1 7DZ       0.023367
     29 H3           0.1320     0.7470    -0.7730 h1         1 7DZ       0.023367
     30 H4           5.6120     1.2600    -1.0180 ha         1 7DZ       0.140000
     31 H5           8.4290    -1.5170     0.6210 ha         1 7DZ       0.140000
     32 H6           2.9820     3.0190     6.7910 hc         1 7DZ       0.004200
     33 H7           4.2810     2.7360     7.9580 hc         1 7DZ       0.004200
     34 H8           4.5870     2.5360     6.2280 hc         1 7DZ       0.004200
     35 H9           4.3260     0.3200     7.0020 hc         1 7DZ       0.028700
     36 H10          1.9100     1.3050     8.5630 hc         1 7DZ       0.004200
     37 H11          2.4960    -0.3630     8.5210 hc         1 7DZ       0.004200
     38 H12          3.4890     0.9050     9.2530 hc         1 7DZ       0.004200
     39 H13          1.6190     1.3040     6.0330 hc         1 7DZ       0.025200
     40 H14          2.1010    -0.3960     6.0990 hc         1 7DZ       0.025200
     41 H15          4.0470     0.1510     4.6150 h1         1 7DZ       0.041700
     42 H16          3.4270     1.8020     4.4730 h1         1 7DZ       0.041700
     43 H17          2.3700     0.1130    -0.9870 h4         1 7DZ      -0.003900
     44 H18          8.6550    -0.8330    -4.2060 ho         1 7DZ       0.406000
     45 H19          0.5000     1.1360     4.3800 h1         1 7DZ       0.078700
     46 H20          6.7490    -0.1670     2.0140 hn         1 7DZ       0.297800
     47 H21          1.5380     3.1680     4.2490 hc         1 7DZ       0.021700
     48 H22          2.5660     2.6640     2.9010 hc         1 7DZ       0.021700
     49 H23          0.8990     3.1750     2.6000 hc         1 7DZ       0.021700
     50 O1           9.0010    -0.1540    -3.6500 oh         1 7DZ      -0.473100
     51 C9           3.4470     0.9440     7.1040 c3         1 7DZ      -0.050700
@<TRIPOS>BOND
     1     1    23 1   
     2     1    27 1   
     3     1    28 1   
     4     1    29 1   
     5     2     3 ar  
     6     2     4 ar  
     7     2    21 1   
     8     3     8 ar  
     9     3    30 1   
    10     4     5 ar  
    11     4    50 1   
    12     5     7 ar  
    13     5    20 1   
    14     6    14 ar  
    15     6    15 ar  
    16     7     8 ar  
    17     7    31 1   
    18     8    22 1   
    19     9    32 1   
    20     9    33 1   
    21     9    34 1   
    22     9    51 1   
    23    10    36 1   
    24    10    37 1   
    25    10    38 1   
    26    10    51 1   
    27    11    12 1   
    28    11    39 1   
    29    11    40 1   
    30    11    51 1   
    31    12    25 1   
    32    12    41 1   
    33    12    42 1   
    34    13    16 ar  
    35    13    19 ar  
    36    13    25 1   
    37    14    19 ar  
    38    14    22 1   
    39    15    16 ar  
    40    15    43 1   
    41    16    23 1   
    42    17    18 1   
    43    17    23 1   
    44    17    24 2   
    45    18    25 1   
    46    18    26 1   
    47    18    45 1   
    48    22    46 1   
    49    26    47 1   
    50    26    48 1   
    51    26    49 1   
    52    35    51 1   
    53    44    50 1   
@<TRIPOS>SUBSTRUCTURE
     1 7DZ         1 TEMP              0 ****  ****    0 ROOT
