@<TRIPOS>MOLECULE
molecule
   51    53     1     0     0
SMALL
bcc


@<TRIPOS>ATOM
      1 C18          0.0000     0.0000     0.0000 c3         1 7DZ       0.093300
      2 C16          7.1870     0.6380    -2.3270 ca         1 7DZ       0.154900
      3 C17          6.4990     0.6480    -1.1280 ca         1 7DZ      -0.195500
      4 C15          8.3230    -0.1450    -2.4700 ca         1 7DZ       0.006100
      5 C14          8.7700    -0.9210    -1.4080 ca         1 7DZ       0.154900
      6 N1           4.2170     0.0000     0.0000 nb         1 7DZ      -0.787000
      7 C13          8.0810    -0.9120    -0.2080 ca         1 7DZ      -0.195500
      8 C12          6.9440    -0.1280    -0.0660 ca         1 7DZ       0.210600
      9 C11          3.8540     2.4160     7.0150 c3         1 7DZ      -0.089600
     10 C10          2.7870     0.6780     8.4590 c3         1 7DZ      -0.089600
     11 C8           2.4570     0.6200     5.9830 c3         1 7DZ      -0.084400
     12 C7           3.1550     0.7650     4.6290 c3         1 7DZ       0.164800
     13 C6           2.9130     0.2250     2.3550 ca         1 7DZ       0.669200
     14 C5           4.8660     0.0000     1.1550 ca         1 7DZ       0.936900
     15 C4           2.8950     0.1130    -0.0390 ca         1 7DZ       0.477200
     16 C3           2.2010     0.2310     1.1490 ca         1 7DZ      -0.257000
     17 C2           0.2200     0.8270     2.2960 c          1 7DZ       0.707500
     18 C1           1.0810     1.2170     3.4700 c3         1 7DZ       0.106500
     19 N2           4.2360     0.1100     2.3150 nb         1 7DZ      -0.812000
     20 F1           9.8760    -1.6840    -1.5470 f          1 7DZ      -0.123400
     21 F            6.7500     1.3880    -3.3630 f          1 7DZ      -0.123400
     22 N4           6.2480    -0.1190     1.1490 nu         1 7DZ      -0.755300
     23 N            0.8040     0.3600     1.1700 n          1 7DZ      -0.365000
     24 O           -0.9870     0.9300     2.3620 o          1 7DZ      -0.617500
     25 N3           2.2460     0.3310     3.5610 nh         1 7DZ      -0.683300
     26 C            1.5560     2.6610     3.2920 c3         1 7DZ      -0.125100
     27 H1           0.3180    -0.9660    -0.3730 h1         1 7DZ       0.053700
     28 H2          -1.0450    -0.0480     0.2810 h1         1 7DZ       0.053700
     29 H3           0.1320     0.7470    -0.7730 h1         1 7DZ       0.053700
     30 H4           5.6120     1.2600    -1.0180 ha         1 7DZ       0.165500
     31 H5           8.4290    -1.5170     0.6210 ha         1 7DZ       0.165500
     32 H6           2.9820     3.0190     6.7910 hc         1 7DZ       0.035533
     33 H7           4.2810     2.7360     7.9580 hc         1 7DZ       0.035533
     34 H8           4.5870     2.5360     6.2280 hc         1 7DZ       0.035533
     35 H9           4.3260     0.3200     7.0020 hc         1 7DZ       0.052700
     36 H10          1.9100     1.3050     8.5630 hc         1 7DZ       0.035533
     37 H11          2.4960    -0.3630     8.5210 hc         1 7DZ       0.035533
     38 H12          3.4890     0.9050     9.2530 hc         1 7DZ       0.035533
     39 H13          1.6190     1.3040     6.0330 hc         1 7DZ       0.051200
     40 H14          2.1010    -0.3960     6.0990 hc         1 7DZ       0.051200
     41 H15          4.0470     0.1510     4.6150 h1         1 7DZ       0.063200
     42 H16          3.4270     1.8020     4.4730 h1         1 7DZ       0.063200
     43 H17          2.3700     0.1130    -0.9870 h4         1 7DZ       0.040100
     44 H18          8.6550    -0.8330    -4.2060 ho         1 7DZ       0.421000
     45 H19          0.5000     1.1360     4.3800 h1         1 7DZ       0.112700
     46 H20          6.7490    -0.1670     2.0140 hn         1 7DZ       0.472800
     47 H21          1.5380     3.1680     4.2490 hc         1 7DZ       0.053700
     48 H22          2.5660     2.6640     2.9010 hc         1 7DZ       0.053700
     49 H23          0.8990     3.1750     2.6000 hc         1 7DZ       0.053700
     50 O1           9.0010    -0.1540    -3.6500 oh         1 7DZ      -0.495100
     51 C9           3.4470     0.9440     7.1040 c3         1 7DZ      -0.075700
@<TRIPOS>BOND
     1    10    51 1   
     2    51    11 1   
     3    51     9 1   
     4    11    12 1   
     5    24    17 2   
     6    17    18 1   
     7    17    23 1   
     8    18    25 1   
     9    18    26 1   
    10    12    25 1   
    11    25    13 1   
    12    23     1 1   
    13    23    16 1   
    14    13    16 ar  
    15    13    19 ar  
    16    16    15 ar  
    17    19    14 ar  
    18    50     4 1   
    19    15     6 ar  
    20    21     2 1   
    21     2     4 ar  
    22     2     3 ar  
    23     4     5 ar  
    24    14     6 ar  
    25    14    22 1   
    26     3     8 ar  
    27     5     7 ar  
    28     5    20 1   
    29     8     7 ar  
    30     8    22 1   
    31     1    27 1   
    32     1    28 1   
    33     1    29 1   
    34     3    30 1   
    35     7    31 1   
    36     9    32 1   
    37     9    33 1   
    38     9    34 1   
    39    51    35 1   
    40    10    36 1   
    41    10    37 1   
    42    10    38 1   
    43    11    39 1   
    44    11    40 1   
    45    12    41 1   
    46    12    42 1   
    47    15    43 1   
    48    50    44 1   
    49    18    45 1   
    50    22    46 1   
    51    26    47 1   
    52    26    48 1   
    53    26    49 1   
@<TRIPOS>SUBSTRUCTURE
     1 7DZ         1 TEMP              0 ****  ****    0 ROOT
