@<TRIPOS>MOLECULE
molecule
   39    42     1     0     0
SMALL
bcc


@<TRIPOS>ATOM
      1 C20          0.0000     0.0000     0.0000 c3         1 7E0      -0.059900
      2 C13          1.5070     0.0000     0.0000 c2         1 7E0      -0.099400
      3 C12          2.2060     0.0000     1.3270 c3         1 7E0      -0.041200
      4 C11          3.6750     0.3970     1.1530 c3         1 7E0      -0.075400
      5 C14          2.1100    -0.0050    -1.1460 c2         1 7E0      -0.172200
      6 C15          3.6060     0.0060    -1.3040 c3         1 7E0       0.195300
      7 O3           4.0210     1.3170    -1.6900 os         1 7E0      -0.406600
      8 C10          4.2640    -0.4270     0.0030 c3         1 7E0      -0.078000
      9 C19          3.9870    -1.9120     0.2440 c3         1 7E0      -0.085100
     10 C9           5.7830    -0.1920    -0.0710 c3         1 7E0      -0.037000
     11 C18          6.5370    -0.7150     1.1530 c3         1 7E0      -0.073100
     12 C8           6.2510    -0.8160    -1.4130 c3         1 7E0      -0.078400
     13 C7           6.0230     0.2670    -2.4870 c3         1 7E0      -0.117400
     14 C16          5.9790     1.3180    -0.3050 cx         1 7E0       0.015800
     15 C6           5.4480     1.4930    -1.7580 c3         1 7E0       0.171100
     16 C17          5.7630     2.3510     0.7820 cx         1 7E0       0.055400
     17 O6           7.0530     2.0540     0.2330 op         1 7E0      -0.366600
     18 H1          -0.3610     0.9610    -0.3470 hc         1 7E0       0.042700
     19 H2          -0.3610    -0.1800     1.0050 hc         1 7E0       0.042700
     20 H3          -0.3610    -0.7810    -0.6580 hc         1 7E0       0.042700
     21 H4           2.1540    -0.9920     1.7580 hc         1 7E0       0.051700
     22 H5           1.7210     0.7090     1.9860 hc         1 7E0       0.051700
     23 H6           4.2190     0.1890     2.0660 hc         1 7E0       0.053700
     24 H7           3.7410     1.4520     0.9150 hc         1 7E0       0.053700
     25 H8           1.5020    -0.0180    -2.0420 ha         1 7E0       0.128000
     26 H9           3.8820    -0.6930    -2.0840 h1         1 7E0       0.046700
     27 H10          3.0790    -2.1980    -0.2720 hc         1 7E0       0.040033
     28 H11          3.8700    -2.0900     1.3060 hc         1 7E0       0.040033
     29 H12          4.8160    -2.5000    -0.1310 hc         1 7E0       0.040033
     30 H13          6.0850    -0.3160     2.0530 hc         1 7E0       0.043033
     31 H14          6.4880    -1.7970     1.1720 hc         1 7E0       0.043033
     32 H15          7.5730    -0.4020     1.1000 hc         1 7E0       0.043033
     33 H16          7.3020    -1.0730    -1.3590 hc         1 7E0       0.051700
     34 H17          5.6620    -1.6970    -1.6410 hc         1 7E0       0.051700
     35 H18          6.9630     0.5230    -2.9600 hc         1 7E0       0.057200
     36 H19          5.3180    -0.0880    -3.2280 hc         1 7E0       0.057200
     37 H20          5.7440     2.4330    -2.2080 h1         1 7E0       0.100700
     38 H21          5.3200     3.2860     0.4610 h1         1 7E0       0.085200
     39 H22          5.5730     1.9590     1.7730 h1         1 7E0       0.085200
@<TRIPOS>BOND
     1    11    10 1
     2     3     4 1
     3     3     2 1
     4    16    17 1
     5    16    14 1
     6     4     8 1
     7    17    14 1
     8     1     2 1
     9     2     5 2
    10    10    14 1
    11    10     8 1
    12    10    12 1
    13    14    15 1
    14     8     9 1
    15     8     6 1
    16    12    13 1
    17     5     6 1
    18     6     7 1
    19    15    13 1
    20    15     7 1
    21     1    18 1
    22     1    19 1
    23     1    20 1
    24     3    21 1
    25     3    22 1
    26     4    23 1
    27     4    24 1
    28     5    25 1
    29     6    26 1
    30     9    27 1
    31     9    28 1
    32     9    29 1
    33    11    30 1
    34    11    31 1
    35    11    32 1
    36    12    33 1
    37    12    34 1
    38    13    35 1
    39    13    36 1
    40    15    37 1
    41    16    38 1
    42    16    39 1
@<TRIPOS>SUBSTRUCTURE
     1 7E0         1 TEMP              0 ****  ****    0 ROOT
