@<TRIPOS>MOLECULE
molecule
   65    69     1     0     0
SMALL
bcc


@<TRIPOS>ATOM
      1 C01          0.0000     0.0000     0.0000 ca         1 7E1      -0.098000
      2 C02          1.3780     0.0000     0.0000 ca         1 7E1      -0.153000
      3 C03          2.0740     0.0000     1.2030 ca         1 7E1       0.104100
      4 C04          1.3860    -0.0000     2.4080 ca         1 7E1      -0.153000
      5 C05          0.0080     0.0010     2.4190 ca         1 7E1      -0.098000
      6 C07         -1.5490    -4.3990     0.3740 ca         1 7E1      -0.134000
      7 C08         -1.8560    -4.6710    -0.9620 ca         1 7E1      -0.012800
      8 C09         -2.5340    -3.7220    -1.7310 ca         1 7E1      -0.134000
      9 O01          3.4330    -0.0000     1.1980 oh         1 7E1      -0.526100
     10 C11         -1.4640    -5.9630    -1.5600 ce         1 7E1      -0.180200
     11 C13         -6.2430    -1.2650     5.1350 ca         1 7E1       0.101100
     12 C14         -4.9900    -1.7620     5.4620 ca         1 7E1      -0.145000
     13 C15         -4.8790    -2.9670     6.1310 ca         1 7E1       0.040400
     14 C16         -6.0160    -3.6770     6.4730 ca         1 7E1      -0.110000
     15 C17         -7.2660    -3.1830     6.1480 ca         1 7E1      -0.104000
     16 C18         -7.3820    -1.9790     5.4800 ca         1 7E1      -0.091000
     17 Cl1         -3.3110    -3.5920     6.5400 cl         1 7E1      -0.094400
     18 S01         -6.3620    -0.2030     2.9670 s6         1 7E1       1.450500
     19 O05         -6.7380     1.0900     2.5110 o          1 7E1      -0.611800
     20 O06         -7.1810    -1.3370     2.7120 o          1 7E1      -0.611800
     21 C23         -2.1700     0.0070     1.2160 ce         1 7E1      -0.107400
     22 C24         -3.0860     1.1200     1.7330 c3         1 7E1       0.173300
     23 C25         -3.6950     0.5640     3.0580 c3         1 7E1      -0.075400
     24 C26         -4.6360    -0.5540     2.5340 c3         1 7E1      -0.266900
     25 C27         -2.9930    -0.9710     0.7590 cf         1 7E1      -0.055400
     26 C28         -4.4180    -0.4630     0.9910 c3         1 7E1       0.195300
     27 O07         -4.2250     0.9820     0.8190 os         1 7E1      -0.381600
     28 C29         -0.6970     0.0000     1.2120 ca         1 7E1      -0.037800
     29 C30         -2.5960    -2.2560     0.1600 ca         1 7E1      -0.076800
     30 C06         -1.9170    -3.2060     0.9300 ca         1 7E1      -0.103500
     31 C10         -2.8980    -2.5270    -1.1780 ca         1 7E1      -0.103500
     32 H1          -0.5420    -0.0000    -0.9380 ha         1 7E1       0.138500
     33 H2           1.9190     0.0000    -0.9380 ha         1 7E1       0.140000
     34 H3           1.9340    -0.0000     3.3430 ha         1 7E1       0.140000
     35 H4          -0.5270     0.0010     3.3600 ha         1 7E1       0.138500
     36 H5          -1.0240    -5.1360     0.9690 ha         1 7E1       0.138500
     37 H6          -2.7700    -3.9330    -2.7680 ha         1 7E1       0.138500
     38 H7           3.7470    -0.8890     1.1970 ho         1 7E1       0.420000
     39 H8          -0.9380    -6.6980    -0.9640 ha         1 7E1       0.131000
     40 H11         -4.1000    -1.2060     5.1940 ha         1 7E1       0.154000
     41 H12         -5.9280    -4.6220     6.9960 ha         1 7E1       0.151000
     42 H13         -8.1550    -3.7400     6.4170 ha         1 7E1       0.149000
     43 H14         -8.3610    -1.5920     5.2260 ha         1 7E1       0.160000
     44 H16         -2.6480     2.1090     1.7900 h1         1 7E1       0.110700
     45 H17         -4.2570     1.3310     3.5760 hc         1 7E1       0.062700
     46 H18         -2.9220     0.1510     3.6940 hc         1 7E1       0.062700
     47 H19         -4.3310    -1.5230     2.9100 h1         1 7E1       0.118700
     48 H21         -5.1890    -0.9100     0.3750 h1         1 7E1       0.119700
     49 H22         -1.6790    -2.9950     1.9650 ha         1 7E1       0.128500
     50 H23         -3.4240    -1.7920    -1.7750 ha         1 7E1       0.128500
     51 C1          -1.7550    -6.2220    -2.8300 c2         1 7E1      -0.105200
     52 C2          -1.3550    -7.5400    -3.4410 c3         1 7E1      -0.066200
     53 C3          -2.5880    -8.2220    -4.0330 c3         1 7E1      -0.060400
     54 C4          -2.1820    -9.5610    -4.6540 c3         1 7E1      -0.183400
     55 C5          -3.3970   -10.2340    -5.2380 c          1 7E1       0.891600
     56 O1          -3.2790   -11.4280    -5.8390 o          1 7E1      -0.854800
     57 O2          -4.4780    -9.6980    -5.1660 o          1 7E1      -0.854800
     58 H9          -2.2810    -5.4860    -3.4260 ha         1 7E1       0.124000
     59 H10         -0.9220    -8.1750    -2.6770 hc         1 7E1       0.041700
     60 H24         -0.6250    -7.3680    -4.2230 hc         1 7E1       0.041700
     61 H25         -3.3170    -8.3940    -3.2510 hc         1 7E1       0.049700
     62 H26         -3.0210    -7.5870    -4.7970 hc         1 7E1       0.049700
     63 H27         -1.4530    -9.3890    -5.4370 hc         1 7E1       0.027700
     64 H28         -1.7490   -10.1960    -3.8910 hc         1 7E1       0.027700
     65 O02         -6.3560    -0.0770     4.4840 os         1 7E1      -0.453800
@<TRIPOS>BOND
     1     9     3 1   
     2     3     4 ar  
     3     3     2 ar  
     4     4     5 ar  
     5     2     1 ar  
     6     5    28 ar  
     7     1    28 ar  
     8    28    21 1   
     9    21    25 2   
    10    21    22 1   
    11    25    29 1   
    12    25    26 1   
    13    31    29 ar  
    14    31     8 ar  
    15    29    30 ar  
    16    22    27 1   
    17    22    23 1   
    18     8     7 ar  
    19    30     6 ar  
    20     7     6 ar  
    21     7    10 1   
    22    27    26 1   
    23    26    24 1   
    24    23    24 1   
    25    24    18 1   
    26    19    18 2   
    27    18    65 1   
    28    18    20 2   
    29    65    11 1   
    30    11    12 ar  
    31    11    16 ar  
    32    12    13 ar  
    33    16    15 ar  
    34    13    17 1   
    35    13    14 ar  
    36    15    14 ar  
    37     1    32 1   
    38     2    33 1   
    39     4    34 1   
    40     5    35 1   
    41     6    36 1   
    42     8    37 1   
    43     9    38 1   
    44    10    39 1   
    45    12    40 1   
    46    14    41 1   
    47    15    42 1   
    48    16    43 1   
    49    22    44 1   
    50    23    45 1   
    51    23    46 1   
    52    24    47 1   
    53    26    48 1   
    54    30    49 1   
    55    31    50 1   
    56    10    51 2   
    57    51    52 1   
    58    52    53 1   
    59    53    54 1   
    60    54    55 1   
    61    55    56 1   
    62    55    57 1   
    63    51    58 1   
    64    52    59 1   
    65    52    60 1   
    66    53    61 1   
    67    53    62 1   
    68    54    63 1   
    69    54    64 1   
@<TRIPOS>SUBSTRUCTURE
     1 7E1         1 TEMP              0 ****  ****    0 ROOT
