@<TRIPOS>MOLECULE
molecule
   65    69     1     0     0
SMALL
bcc


@<TRIPOS>ATOM
      1 C01          0.0000     0.0000     0.0000 ce         1 7E3      -0.102400
      2 C02          1.5310     0.0000     0.0000 c3         1 7E3       0.172300
      3 C03          1.9370     0.0000     1.5070 c3         1 7E3      -0.074400
      4 C05         -7.7940     3.2330     1.9540 c3         1 7E3      -0.087400
      5 C06         -8.6490     2.6080     3.0580 c3         1 7E3      -0.062400
      6 C07        -10.0370     3.2540     3.0550 c3         1 7E3      -0.181400
      7 C08        -10.8790     2.6380     4.1420 c          1 7E3       0.891600
      8 C09          2.8290     1.5900     4.7990 ca         1 7E3       0.099100
      9 C10          3.1030     2.5640     5.7480 ca         1 7E3      -0.090000
     10 C11          2.3740     2.6060     6.9220 ca         1 7E3       0.041400
     11 C12          1.3730     1.6790     7.1500 ca         1 7E3      -0.109000
     12 C13          1.0990     0.7080     6.2050 ca         1 7E3      -0.105000
     13 C14          1.8250     0.6610     5.0300 ca         1 7E3      -0.148000
     14 C15          1.5110     1.4230     1.9540 c3         1 7E3      -0.263900
     15 C16         -0.3730     1.2510     0.3690 cf         1 7E3      -0.055400
     16 C17          0.9270     2.0160     0.6340 c3         1 7E3       0.192300
     17 C18         -0.8870    -1.1270    -0.3390 ca         1 7E3      -0.041800
     18 C19         -1.7480     1.7580     0.5180 ca         1 7E3      -0.107800
     19 C20         -0.9060    -2.2710     0.4650 ca         1 7E3      -0.097000
     20 C21         -1.7380    -3.3220     0.1440 ca         1 7E3      -0.153500
     21 C22         -2.5560    -3.2460    -0.9760 ca         1 7E3       0.109100
     22 C23         -2.5410    -2.1120    -1.7770 ca         1 7E3      -0.153500
     23 C24         -1.7170    -1.0530    -1.4610 ca         1 7E3      -0.097000
     24 C25         -2.2200     2.7630    -0.3310 ca         1 7E3      -0.072000
     25 C26         -3.5090     3.2320    -0.1920 ca         1 7E3      -0.197500
     26 C27         -4.3380     2.7060     0.7910 ca         1 7E3       0.168100
     27 C28         -3.8740     1.7080     1.6380 ca         1 7E3      -0.197500
     28 C29         -2.5870     1.2330     1.5050 ca         1 7E3      -0.072000
     29 O01         -3.3740    -4.2850    -1.2880 oh         1 7E3      -0.526100
     30 O02         -5.6080     3.1720     0.9250 os         1 7E3      -0.328900
     31 O03        -12.1420     3.0530     4.3280 o          1 7E3      -0.854800
     32 O04        -10.4180     1.7720     4.8470 o          1 7E3      -0.854800
     33 O08          1.8030     1.3900    -0.3840 os         1 7E3      -0.383600
     34 S01          2.9440     2.3840     2.5180 s6         1 7E3       1.453500
     35 Cl1          2.7150     3.8240     8.1110 cl         1 7E3      -0.090400
     36 H2           2.0030    -0.7550    -0.6170 h1         1 7E3       0.110700
     37 H3           1.3900    -0.7580     2.0540 hc         1 7E3       0.062700
     38 H4           3.0060    -0.1360     1.6180 hc         1 7E3       0.062700
     39 H5          -6.5030     1.5230     1.7790 h1         1 7E3       0.035200
     40 H6          -5.9330     2.7520     2.9170 h1         1 7E3       0.035200
     41 H7          -7.6970     4.2980     2.1310 hc         1 7E3       0.045700
     42 H8          -8.2670     3.0690     0.9930 hc         1 7E3       0.045700
     43 H9          -8.7460     1.5440     2.8800 hc         1 7E3       0.046200
     44 H10         -8.1760     2.7720     4.0180 hc         1 7E3       0.046200
     45 H11         -9.9400     4.3180     3.2320 hc         1 7E3       0.030700
     46 H12        -10.5100     3.0890     2.0950 hc         1 7E3       0.030700
     47 H13          3.8870     3.2900     5.5700 ha         1 7E3       0.168000
     48 H14          0.8020     1.7140     8.0700 ha         1 7E3       0.153000
     49 H15          0.3150    -0.0170     6.3850 ha         1 7E3       0.149000
     50 H16          1.6100    -0.1000     4.2900 ha         1 7E3       0.145000
     51 H17          0.7500     1.3740     2.7240 h1         1 7E3       0.116700
     52 H19          0.8580     3.0960     0.5880 h1         1 7E3       0.114700
     53 H20         -0.2680    -2.3310     1.3390 ha         1 7E3       0.136500
     54 H21         -1.7530    -4.2090     0.7660 ha         1 7E3       0.141000
     55 H22         -3.1830    -2.0560    -2.6470 ha         1 7E3       0.141000
     56 H23         -1.7070    -0.1690    -2.0870 ha         1 7E3       0.136500
     57 H24         -1.5540     3.2180    -1.0540 ha         1 7E3       0.130000
     58 H25         -3.8800     4.0020    -0.8570 ha         1 7E3       0.147500
     59 H26         -4.5290     1.2900     2.3920 ha         1 7E3       0.147500
     60 H27         -2.1800     0.5960     2.2810 ha         1 7E3       0.130000
     61 H28         -4.1520    -4.2430    -0.7580 ho         1 7E3       0.423000
     62 O05          3.5410     1.5480     3.6410 os         1 7E3      -0.454800
     63 C04         -6.4060     2.5870     1.9560 c3         1 7E3       0.129400
     64 O06          3.9550     2.4020     1.5190 o          1 7E3      -0.613300
     65 O07          2.5220     3.5800     3.1560 o          1 7E3      -0.613300
@<TRIPOS>BOND
     1    32     7 1
     2    31     7 1
     3     7     6 1
     4     6     5 1
     5     5     4 1
     6     4    63 1
     7    63    30 1
     8    35    10 1
     9    30    26 1
    10    10    11 ar
    11    10     9 ar
    12    11    12 ar
    13     9     8 ar
    14    25    26 ar
    15    25    24 ar
    16    26    27 ar
    17    12    13 ar
    18     8    13 ar
    19     8    62 1
    20    24    18 ar
    21    27    28 ar
    22    62    34 1
    23    18    28 ar
    24    18    15 1
    25    34    64 2
    26    34    65 2
    27    34    14 1
    28    16    15 1
    29    16    14 1
    30    16    33 1
    31    15     1 2
    32    14     3 1
    33    33     2 1
    34     1     2 1
    35     1    17 1
    36    19    17 ar
    37    19    20 ar
    38     3     2 1
    39    17    23 ar
    40    20    21 ar
    41    23    22 ar
    42    21    22 ar
    43    21    29 1
    44     2    36 1
    45     3    37 1
    46     3    38 1
    47    63    39 1
    48    63    40 1
    49     4    41 1
    50     4    42 1
    51     5    43 1
    52     5    44 1
    53     6    45 1
    54     6    46 1
    55     9    47 1
    56    11    48 1
    57    12    49 1
    58    13    50 1
    59    14    51 1
    60    16    52 1
    61    19    53 1
    62    20    54 1
    63    22    55 1
    64    23    56 1
    65    24    57 1
    66    25    58 1
    67    27    59 1
    68    28    60 1
    69    29    61 1
@<TRIPOS>SUBSTRUCTURE
     1 7E3         1 TEMP              0 ****  ****    0 ROOT
