@<TRIPOS>MOLECULE
molecule
   72    76     1     0     0
SMALL
bcc


@<TRIPOS>ATOM
      1 C2           0.0000     0.0000     0.0000 c          1 7E4       0.891600
      2 C3           1.5070     0.0000     0.0000 c3         1 7E4      -0.183400
      3 C4           2.0170     0.0000     1.4420 c3         1 7E4      -0.063400
      4 C5           3.5470     0.0010     1.4420 c3         1 7E4      -0.088400
      5 C6           4.0570    -0.0000     2.8850 c3         1 7E4      -0.081400
      6 C7           5.5870     0.0000     2.8850 c3         1 7E4      -0.082400
      7 C8           6.0970     0.0000     4.3270 c3         1 7E4      -0.084400
      8 C11          9.6090    -0.0000     5.7700 c1         1 7E4      -0.134100
      9 C12         10.7830     0.0190     5.7640 cg         1 7E4      -0.101000
     10 C15         14.6570     0.0130     6.3360 ca         1 7E4      -0.218000
     11 C16         15.2300     0.0000     4.9640 ca         1 7E4      -0.136300
     12 C17         16.9400    -0.0090     4.4950 c3         1 7E4      -0.039100
     13 C18         16.9650    -0.0200     3.1900 c3         1 7E4       0.295500
     14 C19         15.5080    -0.0190     2.7890 c3         1 7E4      -0.181100
     15 C21         13.1150    -0.0030     3.9320 ca         1 7E4      -0.107000
     16 N22         17.7260     0.9420     2.3880 nu         1 7E4      -1.078900
     17 C23         16.7610    -0.8020     2.9970 ca         1 7E4       0.935200
     18 C27         16.2430    -3.5350     3.1020 ca         1 7E4       0.374600
     19 C30         18.8960    -4.4140     1.8510 ca         1 7E4      -0.077000
     20 C31         18.4330    -2.6570     2.3260 ca         1 7E4      -0.090000
     21 C32         17.0160    -2.4620     2.5740 ca         1 7E4      -0.368600
     22 C33         14.2120    -1.5160     5.0880 cp         1 7E4      -0.250800
     23 C34         13.4390    -2.7050     5.6020 ca         1 7E4      -0.127000
     24 C35         12.5140    -2.0940     6.4680 ca         1 7E4      -0.156300
     25 C36         12.1570    -0.7770     6.9370 ca         1 7E4       0.142200
     26 C38         13.8540    -0.2120     5.5550 ca         1 7E4       0.001200
     27 O1          -0.6040    -0.0010     1.0460 o          1 7E4      -0.857800
     28 C9           7.6270    -0.0000     4.3270 c3         1 7E4      -0.078400
     29 C10          8.1370    -0.0000     5.7700 c3         1 7E4       0.010700
     30 C13         12.4660     0.0110     5.4200 ca         1 7E4      -0.579000
     31 C20         14.7060    -0.0060     4.1290 ca         1 7E4      -0.116300
     32 C14         13.1410     0.0170     6.2560 ca         1 7E4       0.002000
     33 C29         18.0030    -5.2700     2.2940 ca         1 7E4      -0.175000
     34 C28         16.6090    -5.1080     2.5940 ca         1 7E4      -0.106300
     35 N26         15.3420    -3.4690     3.8800 nb         1 7E4      -0.540000
     36 C25         15.1020    -2.0840     4.2570 cp         1 7E4       0.540500
     37 N24         15.6360    -0.8350     3.9540 nb         1 7E4      -0.503000
     38 N37         12.9830    -0.0940     6.3150 nb         1 7E4       0.453000
     39 O2          -0.6710     0.0060    -1.1630 o          1 7E4      -0.857800
     40 H1           1.8690     0.8850    -0.5100 hc         1 7E4       0.026700
     41 H2           1.8690    -0.8840    -0.5110 hc         1 7E4       0.026700
     42 H3           1.6570    -0.8850     1.9530 hc         1 7E4       0.044700
     43 H4           1.6570     0.8850     1.9530 hc         1 7E4       0.044700
     44 H5           3.9070     0.8850     0.9310 hc         1 7E4       0.029200
     45 H6           3.9080    -0.8840     0.9310 hc         1 7E4       0.029200
     46 H7           3.6940    -0.8850     3.3950 hc         1 7E4       0.038700
     47 H8           3.6930     0.8840     3.3960 hc         1 7E4       0.038700
     48 H9           5.9490     0.8860     2.3760 hc         1 7E4       0.038700
     49 H10          5.9500    -0.8840     2.3750 hc         1 7E4       0.038700
     50 H11          5.7370     0.8850     4.8380 hc         1 7E4       0.039200
     51 H12          5.7370    -0.8840     4.8380 hc         1 7E4       0.039200
     52 H13         15.2500    -0.0930     7.2360 ha         1 7E4       0.236000
     53 H14         17.3900    -0.9590     4.7540 hc         1 7E4       0.071700
     54 H15         17.4630     0.8030     4.9870 hc         1 7E4       0.071700
     55 H16         17.3900    -1.0120     3.1040 h1         1 7E4      -0.182300
     56 H17         15.2580    -0.9660     2.3270 hc         1 7E4       0.119200
     57 H18         15.3080     0.8310     2.1480 hc         1 7E4       0.119200
     58 H19         12.8750    -0.8040     3.2440 ha         1 7E4       0.172000
     59 H20         18.7110     1.0440     2.5300 hn         1 7E4       0.312800
     60 H21         19.9290    -4.7340     1.7940 ha         1 7E4       0.144000
     61 H22         19.0210    -1.7880     2.0550 ha         1 7E4       0.155000
     62 H23         13.0900    -3.4630     4.9120 ha         1 7E4       0.190000
     63 H24         11.7580    -2.8070     6.7730 ha         1 7E4       0.101000
     64 H25         11.3410    -0.5230     7.6020 h4         1 7E4       0.038100
     65 H26         14.3110     0.6580     5.0990 h4         1 7E4       0.255100
     66 H27          7.9880     0.8840     3.8160 hc         1 7E4       0.048700
     67 H28          7.9870    -0.8850     3.8160 hc         1 7E4       0.048700
     68 H29          7.7750    -0.8850     6.2800 hc         1 7E4       0.055700
     69 H30          7.7750     0.8840     6.2800 hc         1 7E4       0.055700
     70 H31         12.6210    -0.2870     7.1560 ha         1 7E4       0.096000
     71 H32         18.3590    -6.2910     2.3700 ha         1 7E4       0.115000
     72 H33         16.0350    -5.9470     2.9690 ha         1 7E4       0.155000
@<TRIPOS>BOND
     1    28    29 1
     2    28     7 1
     3    29     8 1
     4     5     6 1
     5     5     4 1
     6     6     7 1
     7     8     9 3
     8     4     3 1
     9     3     2 1
    10     9    30 1
    11     2     1 1
    12    30    32 ar
    13    30    15 ar
    14    32    10 ar
    15     1    27 1
    16    15    31 ar
    17    10    11 ar
    18    31    11 ar
    19    31    14 1
    20    11    12 1
    21    14    13 1
    22    12    13 1
    23    13    16 1
    24    16    17 1
    25    37    17 ar
    26    37    36 ar
    27    38    26 ar
    28    38    25 ar
    29    17    21 ar
    30    26    22 ar
    31    25    24 ar
    32    22    36 1
    33    22    23 ar
    34    36    35 ar
    35    21    20 ar
    36    21    18 ar
    37    20    19 ar
    38    24    23 ar
    39    35    18 ar
    40    18    34 ar
    41    19    33 ar
    42    34    33 ar
    43     1    39 1
    44     2    40 1
    45     2    41 1
    46     3    42 1
    47     3    43 1
    48     4    44 1
    49     4    45 1
    50     5    46 1
    51     5    47 1
    52     6    48 1
    53     6    49 1
    54     7    50 1
    55     7    51 1
    56    10    52 1
    57    12    53 1
    58    12    54 1
    59    13    55 1
    60    14    56 1
    61    14    57 1
    62    15    58 1
    63    16    59 1
    64    19    60 1
    65    20    61 1
    66    23    62 1
    67    24    63 1
    68    25    64 1
    69    26    65 1
    70    28    66 1
    71    28    67 1
    72    29    68 1
    73    29    69 1
    74    32    70 1
    75    33    71 1
    76    34    72 1
@<TRIPOS>SUBSTRUCTURE
     1 7E4         1 TEMP              0 ****  ****    0 ROOT
