@<TRIPOS>MOLECULE
molecule
   29    30     1     0     0
SMALL
bcc


@<TRIPOS>ATOM
      1 N1           0.0000     0.0000     0.0000 n7         1 7E5      -0.767200
      2 C4           1.4860     0.0000     0.0000 c3         1 7E5       0.048500
      3 C5           2.0110    -1.2390    -0.6790 c          1 7E5       0.899600
      4 C6           0.2660     2.1770     3.9620 ca         1 7E5       0.172100
      5 C7          -0.8880     1.4720     4.2690 ca         1 7E5      -0.257000
      6 C8          -1.6670     1.8530     5.3430 ca         1 7E5      -0.121000
      7 C10         -0.1590     3.6500     5.8330 ca         1 7E5      -0.071000
      8 O1           3.2770    -1.2750    -1.1210 o          1 7E5      -0.851800
      9 O2           1.2910    -2.1990    -0.8260 o          1 7E5      -0.851800
     10 C1           1.8750     0.0000     1.4940 c3         1 7E5      -0.051400
     11 C3          -0.3650     0.9170     1.1110 c3         1 7E5       0.104800
     12 C2           0.6570     0.6040     2.2250 c3         1 7E5       0.121100
     13 O3           1.0320     1.8030     2.9060 os         1 7E5      -0.260900
     14 C9          -1.3030     2.9390     6.1230 ca         1 7E5      -0.219000
     15 C11          0.6350     3.2800     4.7440 ca         1 7E5      -0.139600
     16 C12          1.8610     4.0360     4.4290 c          1 7E5       0.885200
     17 O5           2.2170     5.0880     5.1900 o          1 7E5      -0.836800
     18 O4           2.5480     3.7100     3.4820 o          1 7E5      -0.836800
     19 H1          -0.3340     0.3750    -0.8660 hn         1 7E5       0.324800
     20 H3           1.8610     0.8920    -0.4860 h1         1 7E5       0.028700
     21 H4          -1.1800     0.6210     3.6640 ha         1 7E5       0.127000
     22 H5          -2.5680     1.2990     5.5790 ha         1 7E5       0.092000
     23 H6           0.1200     4.5000     6.4440 ha         1 7E5       0.147000
     24 H8           2.0520    -1.0130     1.8350 hc         1 7E5       0.064700
     25 H9           2.7510     0.6160     1.6530 hc         1 7E5       0.064700
     26 H10         -1.3710     0.7100     1.4550 h1         1 7E5       0.028700
     27 H11         -0.2720     1.9480     0.7930 h1         1 7E5       0.028700
     28 H12          0.2440    -0.1160     2.9200 h1         1 7E5       0.038700
     29 H13         -1.9190     3.2290     6.9650 ha         1 7E5       0.092000
@<TRIPOS>BOND
     1    14     7 ar
     2    14     6 ar
     3     7    15 ar
     4     6     5 ar
     5    15    16 1
     6    15     4 ar
     7     5     4 ar
     8    16    18 1
     9    16    17 1
    10     4    13 1
    11    12    10 1
    12    12    13 1
    13    12    11 1
    14    10     2 1
    15    11     1 1
    16     9     3 1
    17     2     3 1
    18     2     1 1
    19     3     8 1
    20     1    19 1
    21     2    20 1
    22     5    21 1
    23     6    22 1
    24     7    23 1
    25    10    24 1
    26    10    25 1
    27    11    26 1
    28    11    27 1
    29    12    28 1
    30    14    29 1
@<TRIPOS>SUBSTRUCTURE
     1 7E5         1 TEMP              0 ****  ****    0 ROOT
