@<TRIPOS>MOLECULE
7E5
   29    30     1     0     0
SMALL
bcc


@<TRIPOS>ATOM
      1 N1           0.0000     0.0000     0.0000 n7         1 7E5      -0.552200
      2 C4           1.4860     0.0000     0.0000 c3         1 7E5       0.013500
      3 C5           2.0110    -1.2390    -0.6790 c          1 7E5       0.985600
      4 C6           0.2660     2.1770     3.9620 ca         1 7E5       0.185100
      5 C7          -0.8880     1.4720     4.2690 ca         1 7E5      -0.260000
      6 C8          -1.6670     1.8530     5.3430 ca         1 7E5      -0.093000
      7 C10         -0.1590     3.6500     5.8330 ca         1 7E5      -0.039000
      8 O1           3.2770    -1.2750    -1.1210 o          1 7E5      -0.902800
      9 O2           1.2910    -2.1990    -0.8260 o          1 7E5      -0.902800
     10 C1           1.8750     0.0000     1.4940 c3         1 7E5      -0.005400
     11 C3          -0.3650     0.9170     1.1110 c3         1 7E5       0.095800
     12 C2           0.6570     0.6040     2.2250 c3         1 7E5       0.136100
     13 O3           1.0320     1.8030     2.9060 os         1 7E5      -0.226900
     14 C9          -1.3030     2.9390     6.1230 ca         1 7E5      -0.208000
     15 C11          0.6350     3.2800     4.7440 ca         1 7E5      -0.150600
     16 C12          1.8610     4.0360     4.4290 c          1 7E5       0.977200
     17 O5           2.2170     5.0880     5.1900 o          1 7E5      -0.885800
     18 O4           2.5480     3.7100     3.4820 o          1 7E5      -0.885800
     19 H1          -0.3340     0.3750    -0.8660 hn         1 7E5       0.230800
     20 H3           1.8610     0.8920    -0.4860 h1         1 7E5       0.012700
     21 H4          -1.1800     0.6210     3.6640 ha         1 7E5       0.121000
     22 H5          -2.5680     1.2990     5.5790 ha         1 7E5       0.071000
     23 H6           0.1200     4.5000     6.4440 ha         1 7E5       0.120000
     24 H8           2.0520    -1.0130     1.8350 hc         1 7E5       0.033200
     25 H9           2.7510     0.6160     1.6530 hc         1 7E5       0.033200
     26 H10         -1.3710     0.7100     1.4550 h1         1 7E5       0.003200
     27 H11         -0.2720     1.9480     0.7930 h1         1 7E5       0.003200
     28 H12          0.2440    -0.1160     2.9200 h1         1 7E5       0.014700
     29 H13         -1.9190     3.2290     6.9650 ha         1 7E5       0.076000
@<TRIPOS>BOND
     1     1     2 1   
     2     1    11 1   
     3     1    19 1   
     4     2     3 1   
     5     2    10 1   
     6     2    20 1   
     7     3     8 1   
     8     3     9 1   
     9     4     5 ar  
    10     4    13 1   
    11     4    15 ar  
    12     5     6 ar  
    13     5    21 1   
    14     6    14 ar  
    15     6    22 1   
    16     7    14 ar  
    17     7    15 ar  
    18     7    23 1   
    19    10    12 1   
    20    10    24 1   
    21    10    25 1   
    22    11    12 1   
    23    11    26 1   
    24    11    27 1   
    25    12    13 1   
    26    12    28 1   
    27    14    29 1   
    28    15    16 1   
    29    16    17 1   
    30    16    18 1   
@<TRIPOS>SUBSTRUCTURE
     1 7E5         1 TEMP              0 ****  ****    0 ROOT
