@<TRIPOS>MOLECULE
molecule
   37    40     1     0     0
SMALL
bcc


@<TRIPOS>ATOM
      1 C4           0.0000     0.0000     0.0000 ca         1 7E7      -0.093500
      2 C5           1.3810     0.0000     0.0000 ca         1 7E7      -0.174000
      3 C6           2.0740     0.0000     1.2030 ca         1 7E7       0.129100
      4 C8           4.0670     0.1080     2.3990 cc         1 7E7       0.157800
      5 C10          5.1200    -0.3700     4.3270 cd         1 7E7       0.368200
      6 N12          4.3490     1.2540     3.0540 na         1 7E7       0.066400
      7 C13          4.4530    -2.3790     2.8510 cd         1 7E7       0.517800
      8 C15          4.9130    -4.6540     3.4640 cc         1 7E7      -0.018000
      9 C21          4.3080    -5.0640     2.2600 cc         1 7E7      -0.144300
     10 C1           1.3770    -0.0010     2.4030 ca         1 7E7      -0.174000
     11 C14          4.9870    -3.3290     3.7500 cd         1 7E7      -0.258300
     12 C19          3.2880    -4.7980     0.3560 cc         1 7E7       0.350800
     13 C2          -0.0050    -0.0010     2.3970 ca         1 7E7      -0.093500
     14 C23          4.0240     2.6060     2.5960 c3         1 7E7       0.054600
     15 C3          -0.6930    -0.0000     1.1970 ca         1 7E7      -0.154000
     16 C9           4.5400    -0.9360     3.1740 cd         1 7E7      -0.383800
     17 N11          5.0020     0.9280     4.2490 nc         1 7E7      -0.492800
     18 N16          3.8850    -2.7620     1.7290 nc         1 7E7      -0.477800
     19 N17          4.0920    -6.2430     1.6990 nd         1 7E7      -0.066000
     20 N18          3.4840    -6.0740     0.5770 nd         1 7E7      -0.364700
     21 N20          3.7980    -4.1170     1.4040 na         1 7E7       0.093300
     22 O7           3.4330    -0.0010     1.2060 os         1 7E7      -0.208200
     23 H1          -0.5410     0.0000    -0.9380 ha         1 7E7       0.137000
     24 H2           1.9230     0.0000    -0.9380 ha         1 7E7       0.145000
     25 H3           5.5830    -0.9180     5.1380 h4         1 7E7       0.057100
     26 H4           5.3210    -5.3870     4.1500 ha         1 7E7       0.166000
     27 H5           2.5810    -4.9300    -1.6480 hc         1 7E7       0.061033
     28 H6           1.6030    -3.9030    -0.5900 hc         1 7E7       0.061033
     29 H7           3.1690    -3.3290    -1.1800 hc         1 7E7       0.061033
     30 H8           1.9150    -0.0010     3.3430 ha         1 7E7       0.145000
     31 H9           5.4560    -2.9990     4.6690 ha         1 7E7       0.148000
     32 H10         -0.5500    -0.0020     3.3330 ha         1 7E7       0.137000
     33 H11          4.1700     2.6700     1.5250 h1         1 7E7       0.064700
     34 H12          4.6710     3.3200     3.0920 h1         1 7E7       0.064700
     35 H13          2.9910     2.8300     2.8340 h1         1 7E7       0.064700
     36 H14         -1.7760    -0.0000     1.1950 ha         1 7E7       0.135000
     37 C22          2.6130    -4.1980    -0.8510 c3         1 7E7      -0.082400
@<TRIPOS>BOND
     1     1    15 ar  
     2     1     2 ar  
     3    15    13 ar  
     4     2     3 ar  
     5    13    10 ar  
     6     3    10 ar  
     7     3    22 1   
     8    37    12 1   
     9    22     4 1   
    10    14     6 1   
    11    12    20 2   
    12    12    21 1   
    13     4     6 1   
    14     4    16 2   
    15     6    17 1   
    16    18    21 1   
    17    18     7 2   
    18    20    19 1   
    19    21     9 1   
    20    16     7 1   
    21    16     5 1   
    22     7    11 1   
    23    19     9 2   
    24    17     5 2   
    25     9     8 1   
    26    11     8 2   
    27     1    23 1   
    28     2    24 1   
    29     5    25 1   
    30     8    26 1   
    31    37    27 1   
    32    37    28 1   
    33    37    29 1   
    34    10    30 1   
    35    11    31 1   
    36    13    32 1   
    37    14    33 1   
    38    14    34 1   
    39    14    35 1   
    40    15    36 1   
@<TRIPOS>SUBSTRUCTURE
     1 7E7         1 TEMP              0 ****  ****    0 ROOT
