@<TRIPOS>MOLECULE
7E8
   53    52     1     0     0
SMALL
bcc


@<TRIPOS>ATOM
      1 O22         0.4040    0.7620   -0.3200 oh        1 7E8     -0.611800
      2 C19         1.7390    0.2830   -0.2680 c3        1 7E8      0.092400
      3 O20         1.0610   -1.1720    1.5500 oh        1 7E8     -0.599800
      4 C17         3.3760   -0.7430    1.3400 c3        1 7E8      0.138400
      5 O16         3.9420   -0.1060    2.4970 os        1 7E8     -0.444900
      6 C8          5.1730   -0.5500    2.8990 c         1 7E8      0.634100
      7 O15         5.7280   -1.4190    2.2230 o         1 7E8     -0.541000
      8 C7          5.6430    0.1200    4.1520 c3        1 7E8     -0.127400
      9 C6          7.1430    0.3220    4.1320 c3        1 7E8     -0.079400
     10 C5          7.6280    0.8730    5.4560 c3        1 7E8     -0.079400
     11 C4          9.1250    1.0950    5.4370 c3        1 7E8     -0.077400
     12 C3          9.6120    1.6440    6.7620 c3        1 7E8     -0.048200
     13 C2         11.0750    1.8750    6.7700 c2        1 7E8     -0.176200
     14 C1         11.7350    2.4150    7.8000 c2        1 7E8     -0.171200
     15 C9         11.0840    2.8530    9.0570 c3        1 7E8     -0.049200
     16 C10        12.0820    3.3650   10.0740 c3        1 7E8     -0.077400
     17 C11        11.3900    3.8040   11.3470 c3        1 7E8     -0.079400
     18 C12        12.3860    4.3180   12.3640 c3        1 7E8     -0.079400
     19 C13        11.6950    4.7570   13.6380 c3        1 7E8     -0.080400
     20 C14        12.6830    5.2700   14.6540 c3        1 7E8     -0.093100
     21 C18         1.9740   -0.1500    1.1840 c3        1 7E8      0.140100
     22 H22         0.2120    0.9530   -1.2450 ho        1 7E8      0.410000
     23 H191        2.4530    1.1000   -0.5510 h1        1 7E8      0.037700
     24 H192        1.8660   -0.5890   -0.9610 h1        1 7E8      0.037700
     25 H18         1.8400    0.7360    1.8670 h1        1 7E8      0.069700
     26 H20         0.1750   -0.8210    1.3860 ho        1 7E8      0.421000
     27 H171        3.3320   -1.8510    1.5100 h1        1 7E8      0.068200
     28 H172        4.0260   -0.5190    0.4550 h1        1 7E8      0.068200
     29 H7          5.3490   -0.5400    5.0130 hc        1 7E8      0.079200
     30 H8          5.1130    1.1010    4.2760 hc        1 7E8      0.079200
     31 H61C        7.6490   -0.6550    3.9130 hc        1 7E8      0.057700
     32 H62C        7.4160    1.0290    3.3050 hc        1 7E8      0.057700
     33 H51C        7.3640    0.1590    6.2810 hc        1 7E8      0.041200
     34 H52C        7.1050    1.8410    5.6760 hc        1 7E8      0.041200
     35 H41C        9.6460    0.1270    5.2150 hc        1 7E8      0.044700
     36 H42C        9.3890    1.8100    4.6130 hc        1 7E8      0.044700
     37 H31C        9.3430    0.9270    7.5870 hc        1 7E8      0.047700
     38 H32C        9.0790    2.6090    6.9880 hc        1 7E8      0.047700
     39 H2         11.6170    1.5700    5.8600 ha        1 7E8      0.123000
     40 H1         12.8270    2.5590    7.7470 ha        1 7E8      0.123000
     41 H91C       10.5050    1.9950    9.4980 hc        1 7E8      0.047700
     42 H92C       10.3350    3.6600    8.8260 hc        1 7E8      0.047700
     43 H101       12.6530    4.2280    9.6390 hc        1 7E8      0.041700
     44 H102       12.8270    2.5600   10.3090 hc        1 7E8      0.041700
     45 H111       10.8190    2.9420   11.7810 hc        1 7E8      0.039700
     46 H112       10.6440    4.6090   11.1110 hc        1 7E8      0.039700
     47 H121       13.1320    3.5140   12.6000 hc        1 7E8      0.039700
     48 H122       12.9570    5.1810   11.9300 hc        1 7E8      0.039700
     49 H131       10.9480    5.5600   13.4000 hc        1 7E8      0.038700
     50 H132       11.1240    3.8930   14.0700 hc        1 7E8      0.038700
     51 H141       13.4210    4.4760   14.9220 hc        1 7E8      0.032700
     52 H142       12.1530    5.5880   15.5840 hc        1 7E8      0.032700
     53 H143       13.2440    6.1470   14.2500 hc        1 7E8      0.032700
@<TRIPOS>BOND
     1    1    2 1   
     2    1   22 1   
     3    2   21 1   
     4    2   23 1   
     5    2   24 1   
     6    3   21 1   
     7    3   26 1   
     8    4    5 1   
     9    4   21 1   
    10    4   27 1   
    11    4   28 1   
    12    5    6 1   
    13    6    7 2   
    14    6    8 1   
    15    8    9 1   
    16    8   29 1   
    17    8   30 1   
    18    9   10 1   
    19    9   31 1   
    20    9   32 1   
    21   10   11 1   
    22   10   33 1   
    23   10   34 1   
    24   11   12 1   
    25   11   35 1   
    26   11   36 1   
    27   12   13 1   
    28   12   37 1   
    29   12   38 1   
    30   13   14 2   
    31   13   39 1   
    32   14   15 1   
    33   14   40 1   
    34   15   16 1   
    35   15   41 1   
    36   15   42 1   
    37   16   17 1   
    38   16   43 1   
    39   16   44 1   
    40   17   18 1   
    41   17   45 1   
    42   17   46 1   
    43   18   19 1   
    44   18   47 1   
    45   18   48 1   
    46   19   20 1   
    47   19   49 1   
    48   19   50 1   
    49   20   51 1   
    50   20   52 1   
    51   20   53 1   
    52   21   25 1   
@<TRIPOS>SUBSTRUCTURE
     1 7E8         1 TEMP              0 ****  ****    0 ROOT
