@<TRIPOS>MOLECULE
molecule
   53    52     1     0     0
SMALL
bcc


@<TRIPOS>ATOM
      1 O22          0.0000     0.0000     0.0000 oh         1 7E8      -0.605800
      2 C19          1.4290     0.0000     0.0000 c3         1 7E8       0.131400
      3 O20          1.5620    -1.2220     2.0810 oh         1 7E8      -0.591800
      4 C17          3.4640     0.1260     1.4440 c3         1 7E8       0.137400
      5 O16          3.9390     0.2450     2.8110 os         1 7E8      -0.428900
      6 C8           5.2640     0.3660     2.9890 c          1 7E8       0.632100
      7 O15          6.0030     0.3710     2.0330 o          1 7E8      -0.549000
      8 C7           5.8290     0.4930     4.3800 c3         1 7E8      -0.125400
      9 C6           7.3530     0.6140     4.3020 c3         1 7E8      -0.070400
     10 C5           7.9270     0.7440     5.7130 c3         1 7E8      -0.089400
     11 C4           9.4510     0.8660     5.6350 c3         1 7E8      -0.033400
     12 C3          10.0250     0.9950     7.0470 c3         1 7E8      -0.154200
     13 C2          11.5250     1.1150     6.9700 c2         1 7E8      -0.328200
     14 C1          12.1350     2.1040     7.5750 c2         1 7E8      -0.350200
     15 C9          11.3620     3.0220     8.4860 c3         1 7E8      -0.139200
     16 C10         12.0470     3.0810     9.8530 c3         1 7E8      -0.034400
     17 C11         11.2610     4.0130    10.7780 c3         1 7E8      -0.087400
     18 C12         11.9470     4.0720    12.1440 c3         1 7E8      -0.079400
     19 C13         11.1620     5.0050    13.0680 c3         1 7E8      -0.084400
     20 C14         11.8480     5.0640    14.4350 c3         1 7E8      -0.092100
     21 C18          1.9390     0.0000     1.4420 c3         1 7E8       0.149100
     22 H22         -0.3140     0.0830    -0.8850 ho         1 7E8       0.407000
     23 H191         1.7900    -0.8840    -0.5110 h1         1 7E8       0.032700
     24 H192         1.7900     0.8850    -0.5110 h1         1 7E8       0.032700
     25 H18          1.5070     0.8360     1.9790 h1         1 7E8       0.052700
     26 H20          1.0100    -1.0320     2.8220 ho         1 7E8       0.412000
     27 H171         3.9000    -0.7530     0.9860 h1         1 7E8       0.059700
     28 H172         3.7540     1.0070     0.8830 h1         1 7E8       0.059700
     29 H7           5.5660    -0.3840     4.9580 hc         1 7E8       0.071700
     30 H8           5.4210     1.3760     4.8570 hc         1 7E8       0.071700
     31 H61C         7.7620    -0.2690     3.8260 hc         1 7E8       0.062200
     32 H62C         7.6160     1.4910     3.7230 hc         1 7E8       0.062200
     33 H51C         7.5180     1.6260     6.1900 hc         1 7E8       0.040200
     34 H52C         7.6640    -0.1340     6.2920 hc         1 7E8       0.040200
     35 H41C         9.8590    -0.0170     5.1580 hc         1 7E8       0.061200
     36 H42C         9.7130     1.7430     5.0560 hc         1 7E8       0.061200
     37 H31C         9.7620     0.1170     7.6250 hc         1 7E8       0.034200
     38 H32C         9.6160     1.8770     7.5240 hc         1 7E8       0.034200
     39 H2          11.0470     0.6350     7.8150 ha         1 7E8       0.330000
     40 H1          11.5800     2.9460     7.1790 ha         1 7E8       0.330000
     41 H91C        11.3290     4.0150     8.0560 hc         1 7E8       0.033200
     42 H92C        10.3520     2.6470     8.6050 hc         1 7E8       0.033200
     43 H101        12.0800     2.0880    10.2840 hc         1 7E8       0.058700
     44 H102        13.0570     3.4560     9.7340 hc         1 7E8       0.058700
     45 H111        10.2520     3.6380    10.8960 hc         1 7E8       0.040200
     46 H112        11.2290     5.0060    10.3470 hc         1 7E8       0.040200
     47 H121        12.9570     4.4470    12.0260 hc         1 7E8       0.045200
     48 H122        11.9790     3.0790    12.5760 hc         1 7E8       0.045200
     49 H131        11.1300     5.9980    12.6370 hc         1 7E8       0.039700
     50 H132        10.1520     4.6300    13.1870 hc         1 7E8       0.039700
     51 H141        11.2920     5.7250    15.0890 hc         1 7E8       0.034033
     52 H142        11.8790     4.0710    14.8660 hc         1 7E8       0.034033
     53 H143        12.8570     5.4380    14.3160 hc         1 7E8       0.034033
@<TRIPOS>BOND
     1     1     2 1   
     2     2    21 1   
     3     3    21 1   
     4     4     5 1   
     5     4    21 1   
     6     5     6 1   
     7     6     7 2   
     8     6     8 1   
     9     8     9 1   
    10     9    10 1   
    11    10    11 1   
    12    11    12 1   
    13    12    13 1   
    14    13    14 2   
    15    14    15 1   
    16    15    16 1   
    17    16    17 1   
    18    17    18 1   
    19    18    19 1   
    20    19    20 1   
    21     1    22 1   
    22     2    23 1   
    23     2    24 1   
    24    21    25 1   
    25     3    26 1   
    26     4    27 1   
    27     4    28 1   
    28     8    29 1   
    29     8    30 1   
    30     9    31 1   
    31     9    32 1   
    32    10    33 1   
    33    10    34 1   
    34    11    35 1   
    35    11    36 1   
    36    12    37 1   
    37    12    38 1   
    38    13    39 1   
    39    14    40 1   
    40    15    41 1   
    41    15    42 1   
    42    16    43 1   
    43    16    44 1   
    44    17    45 1   
    45    17    46 1   
    46    18    47 1   
    47    18    48 1   
    48    19    49 1   
    49    19    50 1   
    50    20    51 1   
    51    20    52 1   
    52    20    53 1   
@<TRIPOS>SUBSTRUCTURE
     1 7E8         1 TEMP              0 ****  ****    0 ROOT
