@<TRIPOS>MOLECULE
7E9
   53    52     1     0     0
SMALL
bcc


@<TRIPOS>ATOM
      1 O21        -0.5590   -0.1660    0.5330 oh        1 7E9     -0.601300
      2 C20         0.6400   -0.0110   -0.1890 c3        1 7E9      0.122400
      3 O19         2.7080   -2.3170    0.0490 o         1 7E9     -0.541000
      4 C17         1.8940    1.3670    1.5550 c3        1 7E9      0.122400
      5 O2          0.7950    1.4370    2.4390 oh        1 7E9     -0.601300
      6 O1          1.9010   -0.9850    1.6540 os        1 7E9     -0.449900
      7 C14         3.1810  -14.3290   10.2070 c3        1 7E9     -0.093100
      8 C13         2.8780  -13.0380    9.4910 c3        1 7E9     -0.080400
      9 C12         3.8710  -12.7750    8.3780 c3        1 7E9     -0.079400
     10 C11         3.5630  -11.4780    7.6610 c3        1 7E9     -0.079400
     11 C10         4.5570  -11.2170    6.5490 c3        1 7E9     -0.077400
     12 C80         2.3160   -2.2150    1.2120 c         1 7E9      0.644100
     13 C9          4.2470   -9.9180    5.8330 c3        1 7E9     -0.049200
     14 C15         1.8770    0.0940    0.7050 c3        1 7E9      0.067100
     15 C8          5.2050   -9.6380    4.7380 c2        1 7E9     -0.171200
     16 C7          5.1090   -8.5850    3.9190 c2        1 7E9     -0.176200
     17 C6          4.0300   -7.5730    4.0030 c3        1 7E9     -0.048200
     18 C5          4.2270   -6.4400    3.0170 c3        1 7E9     -0.077400
     19 C4          3.1140   -5.4210    3.1290 c3        1 7E9     -0.079400
     20 C3          3.3120   -4.2900    2.1420 c3        1 7E9     -0.079400
     21 C2          2.2050   -3.2650    2.2720 c3        1 7E9     -0.126400
     22 H21        -0.6610    0.6090    1.1030 ho        1 7E9      0.418000
     23 H201        0.7140   -0.9380   -0.8230 h1        1 7E9      0.058200
     24 H202        0.5930    0.8990   -0.8450 h1        1 7E9      0.058200
     25 H15         2.8000    0.0500    0.0620 h1        1 7E9      0.081700
     26 H171        1.7930    2.2660    0.8900 h1        1 7E9      0.058200
     27 H172        2.8560    1.4210    2.1320 h1        1 7E9      0.058200
     28 H2          0.8210    0.6430    2.9910 ho        1 7E9      0.418000
     29 H21C        2.2280   -2.7840    3.2850 hc        1 7E9      0.080700
     30 H22C        1.2000   -3.7550    2.1500 hc        1 7E9      0.080700
     31 H31C        4.3030   -3.7980    2.3230 hc        1 7E9      0.058200
     32 H32C        3.3280   -4.6920    1.0940 hc        1 7E9      0.058200
     33 H41C        2.1270   -5.9200    2.9380 hc        1 7E9      0.041700
     34 H42C        3.0820   -5.0100    4.1730 hc        1 7E9      0.041700
     35 H51C        4.2590   -6.8500    1.9730 hc        1 7E9      0.044700
     36 H52C        5.2140   -5.9420    3.2080 hc        1 7E9      0.044700
     37 H61C        3.9850   -7.1590    5.0480 hc        1 7E9      0.047700
     38 H62C        3.0390   -8.0700    3.8120 hc        1 7E9      0.047700
     39 H7          5.8550   -8.4300    3.1230 ha        1 7E9      0.123000
     40 H8          6.0310  -10.3580    4.6220 ha        1 7E9      0.123000
     41 H91         4.2670   -9.0690    6.5710 hc        1 7E9      0.047700
     42 H92         3.2030   -9.9580    5.4170 hc        1 7E9      0.047700
     43 HA1         4.5330  -12.0660    5.8150 hc        1 7E9      0.041700
     44 HB2         5.5940  -11.1750    6.9730 hc        1 7E9      0.041700
     45 HB1         3.5870  -10.6290    8.3930 hc        1 7E9      0.039700
     46 HC2         2.5260  -11.5200    7.2360 hc        1 7E9      0.039700
     47 HC1         4.9090  -12.7340    8.8030 hc        1 7E9      0.039700
     48 HD2         3.8480  -13.6250    7.6460 hc        1 7E9      0.039700
     49 HD1         2.9020  -12.1870   10.2210 hc        1 7E9      0.038700
     50 HE2         1.8410  -13.0780    9.0640 hc        1 7E9      0.038700
     51 HE1         3.1370  -15.1920    9.5000 hc        1 7E9      0.032700
     52 HF2         4.2010  -14.2990   10.6600 hc        1 7E9      0.032700
     53 HG3         2.4380  -14.5030   11.0230 hc        1 7E9      0.032700
@<TRIPOS>BOND
     1    1    2 1   
     2    1   22 1   
     3    2   14 1   
     4    2   23 1   
     5    2   24 1   
     6    3   12 2   
     7    4    5 1   
     8    4   14 1   
     9    4   26 1   
    10    4   27 1   
    11    5   28 1   
    12    6   12 1   
    13    6   14 1   
    14    7    8 1   
    15    7   51 1   
    16    7   52 1   
    17    7   53 1   
    18    8    9 1   
    19    8   49 1   
    20    8   50 1   
    21    9   10 1   
    22    9   47 1   
    23    9   48 1   
    24   10   11 1   
    25   10   45 1   
    26   10   46 1   
    27   11   13 1   
    28   11   43 1   
    29   11   44 1   
    30   12   21 1   
    31   13   15 1   
    32   13   41 1   
    33   13   42 1   
    34   14   25 1   
    35   15   16 2   
    36   15   40 1   
    37   16   17 1   
    38   16   39 1   
    39   17   18 1   
    40   17   37 1   
    41   17   38 1   
    42   18   19 1   
    43   18   35 1   
    44   18   36 1   
    45   19   20 1   
    46   19   33 1   
    47   19   34 1   
    48   20   21 1   
    49   20   31 1   
    50   20   32 1   
    51   21   29 1   
    52   21   30 1   
@<TRIPOS>SUBSTRUCTURE
     1 7E9         1 TEMP              0 ****  ****    0 ROOT
