@<TRIPOS>MOLECULE
molecule
   53    52     1     0     0
SMALL
bcc


@<TRIPOS>ATOM
      1 O21          0.0000     0.0000     0.0000 oh         1 7E9      -0.570800
      2 C20          1.4290     0.0000     0.0000 c3         1 7E9       0.136900
      3 O19          3.4560    -2.1330     1.4030 o          1 7E9      -0.560000
      4 C17          1.3310     1.1830     2.1980 c3         1 7E9       0.136900
      5 O2          -0.0940     1.1290     2.0990 oh         1 7E9      -0.570800
      6 O1           1.5560    -1.2400     2.0920 os         1 7E9      -0.401900
      7 C14          2.9420   -13.6120    10.2170 c3         1 7E9      -0.092100
      8 C13          3.1670   -12.2190     9.6220 c3         1 7E9      -0.084400
      9 C12          3.7560   -12.3540     8.2170 c3         1 7E9      -0.079400
     10 C11          3.9810   -10.9630     7.6220 c3         1 7E9      -0.087400
     11 C10          4.5710   -11.0980     6.2160 c3         1 7E9      -0.034400
     12 C80          2.4170    -2.2660     2.0030 c          1 7E9       0.628100
     13 C9           4.7950    -9.7070     5.6210 c3         1 7E9      -0.143200
     14 C15          1.9400     0.0000     1.4420 c3         1 7E9       0.155100
     15 C8           5.3750    -9.8400     4.2370 c2         1 7E9      -0.344200
     16 C7           4.8130    -9.2220     3.2290 c2         1 7E9      -0.336200
     17 C6           3.6910    -8.2450     3.4750 c3         1 7E9      -0.151200
     18 C5           4.0270    -6.9070     2.8140 c3         1 7E9      -0.033400
     19 C4           2.8880    -5.9150     3.0640 c3         1 7E9      -0.089400
     20 C3           3.2240    -4.5770     2.4040 c3         1 7E9      -0.071400
     21 C2           2.0860    -3.5850     2.6530 c3         1 7E9      -0.126400
     22 H21         -0.3140    -0.1350    -0.8790 ho         1 7E9       0.392000
     23 H201         1.7900    -0.8840    -0.5110 h1         1 7E9       0.029200
     24 H202         1.7900     0.8840    -0.5110 h1         1 7E9       0.029200
     25 H15          3.0200     0.0890     1.4430 h1         1 7E9       0.080700
     26 H171         1.6220     1.1280     3.2400 h1         1 7E9       0.029200
     27 H172         1.6880     2.1130     1.7720 h1         1 7E9       0.029200
     28 H2          -0.4750     1.7250     2.7220 ho         1 7E9       0.392000
     29 H21C         1.1680    -3.9760     2.2310 hc         1 7E9       0.073200
     30 H22C         1.9600    -3.4410     3.7200 hc         1 7E9       0.073200
     31 H31C         4.1420    -4.1860     2.8270 hc         1 7E9       0.061200
     32 H32C         3.3500    -4.7210     1.3380 hc         1 7E9       0.061200
     33 H41C         1.9700    -6.3060     2.6410 hc         1 7E9       0.040700
     34 H42C         2.7620    -5.7710     4.1300 hc         1 7E9       0.040700
     35 H51C         4.9450    -6.5160     3.2370 hc         1 7E9       0.060700
     36 H52C         4.1530    -7.0510     1.7480 hc         1 7E9       0.060700
     37 H61C         2.7730    -8.6360     3.0520 hc         1 7E9       0.034200
     38 H62C         3.5640    -8.1000     4.5410 hc         1 7E9       0.034200
     39 H7           3.7900    -9.5630     3.3380 ha         1 7E9       0.330000
     40 H8           5.6250    -8.9950     4.8680 ha         1 7E9       0.331000
     41 H91          5.4820    -9.1520     6.2490 hc         1 7E9       0.033200
     42 H92          3.8500    -9.1800     5.5680 hc         1 7E9       0.033200
     43 HA1          3.8840   -11.6530     5.5890 hc         1 7E9       0.058700
     44 HB2          5.5160   -11.6240     6.2700 hc         1 7E9       0.058700
     45 HB1          3.0360   -10.4360     7.5680 hc         1 7E9       0.040200
     46 HC2          4.6680   -10.4090     8.2500 hc         1 7E9       0.040200
     47 HC1          4.7010   -12.8810     8.2700 hc         1 7E9       0.044700
     48 HD2          3.0690   -12.9090     7.5890 hc         1 7E9       0.044700
     49 HD1          3.8760   -11.6750    10.2340 hc         1 7E9       0.039700
     50 HE2          2.2260   -11.6820     9.5950 hc         1 7E9       0.039700
     51 HE1          2.2550   -14.1660     9.5890 hc         1 7E9       0.034033
     52 HF2          2.5240   -13.5160    11.2120 hc         1 7E9       0.034033
     53 HG3          3.8870   -14.1380    10.2720 hc         1 7E9       0.034033
@<TRIPOS>BOND
     1     1     2 1
     2     2    14 1
     3     3    12 2
     4     4     5 1
     5     4    14 1
     6     6    12 1
     7     6    14 1
     8    21    20 1
     9    21    12 1
    10    20    19 1
    11    19    18 1
    12    18    17 1
    13    17    16 1
    14    16    15 2
    15    15    13 1
    16    13    11 1
    17    11    10 1
    18    10     9 1
    19     9     8 1
    20     8     7 1
    21     1    22 1
    22     2    23 1
    23     2    24 1
    24    14    25 1
    25     4    26 1
    26     4    27 1
    27     5    28 1
    28    21    29 1
    29    21    30 1
    30    20    31 1
    31    20    32 1
    32    19    33 1
    33    19    34 1
    34    18    35 1
    35    18    36 1
    36    17    37 1
    37    17    38 1
    38    16    39 1
    39    15    40 1
    40    13    41 1
    41    13    42 1
    42    11    43 1
    43    11    44 1
    44    10    45 1
    45    10    46 1
    46     9    47 1
    47     9    48 1
    48     8    49 1
    49     8    50 1
    50     7    51 1
    51     7    52 1
    52     7    53 1
@<TRIPOS>SUBSTRUCTURE
     1 7E9         1 TEMP              0 ****  ****    0 ROOT
