@<TRIPOS>MOLECULE
molecule
   34    36     1     0     0
SMALL
bcc


@<TRIPOS>ATOM
      1 N3           0.0000     0.0000     0.0000 nc         1 7EA      -0.489800
      2 C4           2.0360     0.0000     1.2130 cc         1 7EA      -0.261300
      3 C5           1.3440     0.0020    -2.4930 ca         1 7EA      -0.149000
      4 C6           3.4410     0.0020    -1.2990 ca         1 7EA      -0.098000
      5 C8           1.3750    -0.0010     2.4000 cd         1 7EA      -0.016000
      6 C10          4.1230     0.0030    -2.5000 ca         1 7EA      -0.198000
      7 C13          3.4240     0.0110    -3.6970 ca         1 7EA       0.139100
      8 C20          5.5260     0.0070    -4.8070 c3         1 7EA       0.125700
      9 C1           1.3150     0.0000     0.0000 cd         1 7EA       0.488800
     10 C11         -0.0330    -0.0020     2.4000 cd         1 7EA      -0.140300
     11 C12         -2.0220    -0.0020     1.5160 cd         1 7EA       0.347800
     12 C2           2.0480     0.0010    -1.2890 ca         1 7EA      -0.161500
     13 C9           2.0320     0.0040    -3.6930 ca         1 7EA       0.111100
     14 N15         -0.9480    -0.0040     3.3560 nc         1 7EA      -0.064000
     15 N16         -2.1190    -0.0020     2.8220 nc         1 7EA      -0.360700
     16 N7          -0.7080    -0.0010     1.2040 na         1 7EA       0.091300
     17 O14          1.3470    -0.0010    -4.8680 os         1 7EA      -0.310900
     18 H1           3.1190    -0.0000     1.1980 ha         1 7EA       0.154000
     19 H2           0.2600    -0.0010    -2.4880 ha         1 7EA       0.163000
     20 H3           3.9890    -0.0010    -0.3650 ha         1 7EA       0.136000
     21 H4           1.9240    -0.0010     3.3340 ha         1 7EA       0.167000
     22 H5           5.2070     0.0060    -2.5060 ha         1 7EA       0.146000
     23 H6          -4.1070    -0.0040     1.0830 hc         1 7EA       0.061033
     24 H7          -3.1130    -0.8870    -0.0840 hc         1 7EA       0.061033
     25 H8          -3.1150     0.8820    -0.0830 hc         1 7EA       0.061033
     26 H9           5.9370     0.0070    -5.8100 h1         1 7EA       0.043367
     27 H10          5.8480    -0.8870    -4.2860 h1         1 7EA       0.043367
     28 H11          5.8770     0.8820    -4.2730 h1         1 7EA       0.043367
     29 H12         -0.4970    -0.0120    -5.7880 h1         1 7EA       0.044033
     30 H13         -0.4080    -0.8930    -4.2570 h1         1 7EA       0.044033
     31 H14         -0.4170     0.8760    -4.2600 h1         1 7EA       0.044033
     32 C17         -3.1700    -0.0030     0.5390 c3         1 7EA      -0.082400
     33 O18          4.0990     0.0130    -4.8770 os         1 7EA      -0.306900
     34 C19         -0.0800    -0.0080    -4.7880 c3         1 7EA       0.125700
@<TRIPOS>BOND
     1    32    11 1   
     2    15    11 2   
     3    15    14 1   
     4    11    16 1   
     5    14    10 2   
     6    16    10 1   
     7    16     1 1   
     8    10     5 1   
     9     1     9 2   
    10     5     2 2   
    11     9     2 1   
    12     9    12 1   
    13     4    12 ar  
    14     4     6 ar  
    15    12     3 ar  
    16     6     7 ar  
    17     3    13 ar  
    18     7    13 ar  
    19     7    33 1   
    20     8    33 1   
    21    13    17 1   
    22    17    34 1   
    23     2    18 1   
    24     3    19 1   
    25     4    20 1   
    26     5    21 1   
    27     6    22 1   
    28    32    23 1   
    29    32    24 1   
    30    32    25 1   
    31     8    26 1   
    32     8    27 1   
    33     8    28 1   
    34    34    29 1   
    35    34    30 1   
    36    34    31 1   
@<TRIPOS>SUBSTRUCTURE
     1 7EA         1 TEMP              0 ****  ****    0 ROOT
