@<TRIPOS>MOLECULE
7EB
   65    69     1     0     0
SMALL
bcc


@<TRIPOS>ATOM
      1 C01          0.0000     0.0000     0.0000 ca         1 7EB       0.127100
      2 C02          1.3890     0.0000     0.0000 ca         1 7EB      -0.137500
      3 C03          2.0800     0.0000     1.1930 ca         1 7EB      -0.068500
      4 C04          1.3800     0.0000     2.4030 ca         1 7EB      -0.045800
      5 C05         -0.0180    -0.0000     2.3970 ca         1 7EB      -0.068500
      6 C06         -0.7000     0.0050     1.1990 ca         1 7EB      -0.137500
      7 C07          2.1140     0.0000     3.6800 ce         1 7EB      -0.099400
      8 C08          2.9130     0.9840     4.1640 cf         1 7EB      -0.090400
      9 C09          3.4250     0.4830     5.5180 c3         1 7EB       0.270300
     10 C10          3.2240     2.2710     3.5180 ca         1 7EB      -0.083800
     11 C11          2.2140     3.2140     3.3100 ca         1 7EB      -0.043000
     12 C12          2.5110     4.4160     2.7060 ca         1 7EB      -0.179000
     13 C13          3.8120     4.6910     2.3040 ca         1 7EB       0.160100
     14 C14          4.8190     3.7580     2.5080 ca         1 7EB      -0.179000
     15 C15          4.5330     2.5550     3.1170 ca         1 7EB      -0.043000
     16 C16          2.1250    -1.1080     4.7370 c3         1 7EB       0.233300
     17 C17          2.1950     0.5670     6.4740 c3         1 7EB      -0.113900
     18 C18          1.2620    -0.5560     5.9140 c3         1 7EB      -0.013400
     19 O01          3.4890    -0.9620     5.2670 os         1 7EB      -0.378600
     20 O02          4.0990     5.8760     1.7030 os         1 7EB      -0.285900
     21 C19          3.0160     6.7910     1.5230 c3         1 7EB       0.197400
     22 C20          3.5280     8.0580     0.8360 c3         1 7EB       0.147800
     23 N01          3.9880     7.7300    -0.5200 n3         1 7EB      -0.535600
     24 C21          2.8660     7.3020    -1.3660 c3         1 7EB       0.180600
     25 C22          4.7000     8.8620    -1.1230 c3         1 7EB       0.180600
     26 O03         -0.6760     0.0000    -1.1780 oh         1 7EB      -0.500100
     27 S01          2.6820     0.2230     8.1870 s6         1 7EB       1.205500
     28 O04          1.3740     0.2410     8.9650 os         1 7EB      -0.368800
     29 C23          0.8650     1.4850     9.1650 ca         1 7EB       0.148100
     30 C24         -0.0270     2.0260     8.2510 ca         1 7EB      -0.117000
     31 C25         -0.5430     3.2920     8.4560 ca         1 7EB      -0.060000
     32 C26         -0.1680     4.0200     9.5720 ca         1 7EB       0.024100
     33 C27          0.7220     3.4810    10.4840 ca         1 7EB      -0.060000
     34 C28          1.2350     2.2140    10.2860 ca         1 7EB      -0.117000
     35 Br          -0.8730     5.7520     9.8500 br         1 7EB      -0.121100
     36 O05          3.1480    -1.1130     8.3150 o          1 7EB      -0.583300
     37 O06          3.4220     1.3120     8.7230 o          1 7EB      -0.583300
     38 H1           1.9300    -0.0020    -0.9390 ha         1 7EB       0.115500
     39 H2           3.1630     0.0000     1.1920 ha         1 7EB       0.108500
     40 H3          -0.5650     0.0020     3.3320 ha         1 7EB       0.108500
     41 H4          -1.7830     0.0050     1.1930 ha         1 7EB       0.115500
     42 H5           4.3400     0.9370     5.8780 h1         1 7EB       0.069700
     43 H6           1.1990     3.0000     3.6240 ha         1 7EB       0.106000
     44 H7           1.7290     5.1480     2.5440 ha         1 7EB       0.120500
     45 H8           5.8330     3.9780     2.1950 ha         1 7EB       0.120500
     46 H9           5.3200     1.8270     3.2760 ha         1 7EB       0.106000
     47 H10          1.8660    -2.0990     4.3840 h1         1 7EB       0.063700
     48 H11          1.7160     1.5360     6.3970 h1         1 7EB       0.091700
     49 H12          0.3290    -0.1420     5.5510 hc         1 7EB       0.034700
     50 H13          1.0860    -1.3220     6.6600 hc         1 7EB       0.034700
     51 H14          2.2520     6.3310     0.9080 h1         1 7EB       0.004200
     52 H15          2.5960     7.0480     2.4880 h1         1 7EB       0.004200
     53 H16          4.3510     8.4710     1.4070 h1         1 7EB       0.018700
     54 H17          2.7280     8.7860     0.7800 h1         1 7EB       0.018700
     55 H19          2.7360     6.2300    -1.2790 h1         1 7EB       0.001700
     56 H20          1.9600     7.8030    -1.0460 h1         1 7EB       0.001700
     57 H21          3.0740     7.5580    -2.3980 h1         1 7EB       0.001700
     58 H22          5.1000     8.5660    -2.0850 h1         1 7EB       0.001700
     59 H23          5.5120     9.1660    -0.4730 h1         1 7EB       0.001700
     60 H24          4.0150     9.6910    -1.2570 h1         1 7EB       0.001700
     61 H25         -0.8320     0.8890    -1.4520 ho         1 7EB       0.403000
     62 H26         -0.3200     1.4560     7.3780 ha         1 7EB       0.124000
     63 H27         -1.2400     3.7150     7.7430 ha         1 7EB       0.119000
     64 H28          1.0120     4.0520    11.3580 ha         1 7EB       0.119000
     65 H29          1.9320     1.7940    11.0010 ha         1 7EB       0.124000
@<TRIPOS>BOND
     1     1     2 ar  
     2     1     6 ar  
     3     1    26 1   
     4     2     3 ar  
     5     2    38 1   
     6     3     4 ar  
     7     3    39 1   
     8     4     5 ar  
     9     4     7 1   
    10     5     6 ar  
    11     5    40 1   
    12     6    41 1   
    13     7     8 2   
    14     7    16 1   
    15     8     9 1   
    16     8    10 1   
    17     9    17 1   
    18     9    19 1   
    19     9    42 1   
    20    10    11 ar  
    21    10    15 ar  
    22    11    12 ar  
    23    11    43 1   
    24    12    13 ar  
    25    12    44 1   
    26    13    14 ar  
    27    13    20 1   
    28    14    15 ar  
    29    14    45 1   
    30    15    46 1   
    31    16    18 1   
    32    16    19 1   
    33    16    47 1   
    34    17    18 1   
    35    17    27 1   
    36    17    48 1   
    37    18    49 1   
    38    18    50 1   
    39    20    21 1   
    40    21    22 1   
    41    21    51 1   
    42    21    52 1   
    43    22    23 1   
    44    22    53 1   
    45    22    54 1   
    46    23    24 1   
    47    23    25 1   
    48    24    55 1   
    49    24    56 1   
    50    24    57 1   
    51    25    58 1   
    52    25    59 1   
    53    25    60 1   
    54    26    61 1   
    55    27    28 1   
    56    27    36 2   
    57    27    37 2   
    58    28    29 1   
    59    29    30 ar  
    60    29    34 ar  
    61    30    31 ar  
    62    30    62 1   
    63    31    32 ar  
    64    31    63 1   
    65    32    33 ar  
    66    32    35 1   
    67    33    34 ar  
    68    33    64 1   
    69    34    65 1   
@<TRIPOS>SUBSTRUCTURE
     1 7EB         1 TEMP              0 ****  ****    0 ROOT
