@<TRIPOS>MOLECULE
molecule
   72    77     1     0     0
SMALL
bcc


@<TRIPOS>ATOM
      1 C01          0.0000     0.0000     0.0000 ca         1 7EC       0.110100
      2 C02          1.3890     0.0000     0.0000 ca         1 7EC      -0.153000
      3 C03          2.0800     0.0000     1.1920 ca         1 7EC      -0.098000
      4 C04          1.3810     0.0010     2.4030 ca         1 7EC      -0.048800
      5 C05         -0.0170     0.0020     2.3970 ca         1 7EC      -0.098000
      6 C06         -0.7000     0.0070     1.2000 ca         1 7EC      -0.153000
      7 C07          2.1150    -0.0030     3.6800 ce         1 7EC      -0.087400
      8 C08          2.1250    -0.9900     4.6120 cf         1 7EC      -0.078400
      9 C09          3.0390    -0.4950     5.7370 c3         1 7EC       0.190300
     10 C10          1.4040    -2.2730     4.5540 ca         1 7EC      -0.094800
     11 C11          1.7290    -3.2160     3.5740 ca         1 7EC      -0.072500
     12 C12          1.0530    -4.4150     3.5240 ca         1 7EC      -0.194500
     13 C13          0.0490    -4.6870     4.4450 ca         1 7EC       0.154100
     14 C14         -0.2780    -3.7530     5.4200 ca         1 7EC      -0.194500
     15 C15          0.3980    -2.5540     5.4820 ca         1 7EC      -0.072500
     16 C16          3.0270     1.0990     4.2250 c3         1 7EC       0.169300
     17 C17          4.4840    -0.5840     5.1560 c3         1 7EC      -0.269900
     18 C18          4.4750     0.5330     4.0890 c3         1 7EC      -0.064400
     19 O01          2.7970     0.9500     5.6690 os         1 7EC      -0.374600
     20 O02         -0.6160    -5.8710     4.3910 os         1 7EC      -0.307900
     21 C19         -1.6370    -6.0870     5.3680 c3         1 7EC       0.138400
     22 C20         -2.2690    -7.4630     5.1500 c3         1 7EC       0.163800
     23 N01         -1.2660    -8.5070     5.3990 n3         1 7EC      -0.719600
     24 C21         -0.8610    -8.5220     6.8100 c3         1 7EC       0.162300
     25 C22          0.2850    -9.5180     7.0040 c3         1 7EC      -0.076900
     26 C23         -0.1780   -10.9120     6.5720 c3         1 7EC      -0.082400
     27 C24         -0.6400   -10.8580     5.1120 c3         1 7EC      -0.076900
     28 C25         -1.7590    -9.8230     4.9740 c3         1 7EC       0.162300
     29 O03         -0.6770    -0.0000    -1.1780 oh         1 7EC      -0.522100
     30 S01          5.7200    -0.2490     6.4410 s6         1 7EC       1.453500
     31 O04          5.4630    -1.3090     7.5030 os         1 7EC      -0.452800
     32 C26          5.9050    -2.5480     7.1650 ca         1 7EC       0.098100
     33 O05          7.0270    -0.5410     5.9640 o          1 7EC      -0.611800
     34 O06          5.4380     0.9790     7.0970 o          1 7EC      -0.611800
     35 H1           1.9300    -0.0030    -0.9390 ha         1 7EC       0.143000
     36 H2           3.1630    -0.0000     1.1910 ha         1 7EC       0.138000
     37 H3          -0.5630     0.0050     3.3330 ha         1 7EC       0.138000
     38 H4          -1.7830     0.0070     1.1950 ha         1 7EC       0.143000
     39 H5           2.8870    -0.9510     6.7080 h1         1 7EC       0.114700
     40 H6           2.5120    -3.0040     2.8560 ha         1 7EC       0.138500
     41 H7           1.3040    -5.1460     2.7650 ha         1 7EC       0.143500
     42 H8          -1.0600    -3.9710     6.1370 ha         1 7EC       0.143500
     43 H9           0.1420    -1.8260     6.2420 ha         1 7EC       0.138500
     44 H10          2.8650     2.0920     3.8240 h1         1 7EC       0.114700
     45 H11          4.6550    -1.5510     4.6980 h1         1 7EC       0.114700
     46 H12          4.6380     0.1230     3.1000 hc         1 7EC       0.064700
     47 H13          5.2100     1.2940     4.3210 hc         1 7EC       0.064700
     48 H14         -2.3970    -5.3210     5.2710 h1         1 7EC       0.037200
     49 H15         -1.2030    -6.0420     6.3590 h1         1 7EC       0.037200
     50 H16         -3.1010    -7.5910     5.8320 h1         1 7EC       0.047700
     51 H17         -2.6240    -7.5400     4.1290 h1         1 7EC       0.047700
     52 H19         -1.7030    -8.8190     7.4230 h1         1 7EC       0.031950
     53 H20         -0.5290    -7.5320     7.0990 h1         1 7EC       0.031950
     54 H21          1.1310    -9.2160     6.3990 hc         1 7EC       0.049950
     55 H22          0.5700    -9.5410     8.0490 hc         1 7EC       0.049950
     56 H23         -1.0020   -11.2290     7.2000 hc         1 7EC       0.040200
     57 H24          0.6440   -11.6100     6.6650 hc         1 7EC       0.040200
     58 H25          0.1930   -10.5740     4.4810 hc         1 7EC       0.049950
     59 H26         -1.0110   -11.8310     4.8150 hc         1 7EC       0.049950
     60 H27         -2.5950   -10.1130     5.5990 h1         1 7EC       0.031950
     61 H28         -2.0750    -9.7720     3.9400 h1         1 7EC       0.031950
     62 H29         -0.8320     0.8880    -1.4520 ho         1 7EC       0.420000
     63 C1           7.1980    -2.9360     7.4840 ca         1 7EC      -0.119500
     64 C2           7.6470    -4.1960     7.1400 ca         1 7EC      -0.090000
     65 C3           6.8050    -5.0730     6.4770 ca         1 7EC      -0.011900
     66 C4           5.5160    -4.6890     6.1580 ca         1 7EC      -0.090000
     67 C5           5.0620    -3.4310     6.5050 ca         1 7EC      -0.119500
     68 Br           7.4220    -6.7970     6.0060 br         1 7EC      -0.079100
     69 H18          7.8570    -2.2490     8.0020 ha         1 7EC       0.156500
     70 H30          8.6570    -4.4980     7.3900 ha         1 7EC       0.156000
     71 H31          4.8590    -5.3780     5.6410 ha         1 7EC       0.156000
     72 H32          4.0520    -3.1310     6.2550 ha         1 7EC       0.156500
@<TRIPOS>BOND
     1    32    31 1
     2    31    30 1
     3    19     9 1
     4    19    16 1
     5    33    30 2
     6    30    34 2
     7    30    17 1
     8     9    17 1
     9     9     8 1
    10    16    18 1
    11    16     7 1
    12    15    14 ar
    13    15    10 ar
    14    17    18 1
    15     8     7 2
    16     8    10 1
    17    14    13 ar
    18     7     4 1
    19    10    11 ar
    20     4     5 ar
    21     4     3 ar
    22    13    20 1
    23    13    12 ar
    24     5     6 ar
    25    11    12 ar
    26     3     2 ar
    27    20    21 1
    28     6     1 ar
    29     2     1 ar
    30     1    29 1
    31    21    22 1
    32    22    23 1
    33    23    28 1
    34    23    24 1
    35    28    27 1
    36    24    25 1
    37    27    26 1
    38    25    26 1
    39     2    35 1
    40     3    36 1
    41     5    37 1
    42     6    38 1
    43     9    39 1
    44    11    40 1
    45    12    41 1
    46    14    42 1
    47    15    43 1
    48    16    44 1
    49    17    45 1
    50    18    46 1
    51    18    47 1
    52    21    48 1
    53    21    49 1
    54    22    50 1
    55    22    51 1
    56    24    52 1
    57    24    53 1
    58    25    54 1
    59    25    55 1
    60    26    56 1
    61    26    57 1
    62    27    58 1
    63    27    59 1
    64    28    60 1
    65    28    61 1
    66    29    62 1
    67    32    63 ar
    68    63    64 ar
    69    64    65 ar
    70    65    66 ar
    71    66    67 ar
    72    67    32 ar
    73    65    68 1
    74    63    69 1
    75    64    70 1
    76    66    71 1
    77    67    72 1
@<TRIPOS>SUBSTRUCTURE
     1 7EC         1 TEMP              0 ****  ****    0 ROOT
