@<TRIPOS>MOLECULE
molecule
  100   103     1     0     0
SMALL
bcc


@<TRIPOS>ATOM
      1 C01          0.0000     0.0000     0.0000 c3         1 7ED      -0.089600
      2 C02          1.5300     0.0000     0.0000 c3         1 7ED      -0.079900
      3 C03          2.0400     0.0000     1.4420 c3         1 7ED      -0.005400
      4 C37          1.6500     1.2920     2.1130 ca         1 7ED      -0.085300
      5 C38          0.8480     1.2690     3.2400 ca         1 7ED      -0.100000
      6 C39          0.4890     2.4530     3.8560 ca         1 7ED      -0.153250
      7 C40          0.9330     3.6630     3.3450 ca         1 7ED       0.102100
      8 O8           0.5830     4.8280     3.9500 oh         1 7ED      -0.523600
      9 C41          1.7380     3.6830     2.2150 ca         1 7ED      -0.153250
     10 C42          2.0980     2.4970     1.6040 ca         1 7ED      -0.100000
     11 C04          3.5640    -0.1350     1.4450 c3         1 7ED      -0.059900
     12 C05          4.0540    -0.2680     2.8630 c          1 7ED       0.640100
     13 O5           5.3670    -0.4010     3.1100 os         1 7ED      -0.424400
     14 C06          5.7680    -0.5250     4.5000 c3         1 7ED       0.147400
     15 C07          7.2890    -0.6640     4.5820 c3         1 7ED      -0.085400
     16 C08          7.7110    -0.7950     6.0460 c3         1 7ED      -0.079400
     17 C09          9.2320    -0.9350     6.1290 c3         1 7ED      -0.079400
     18 O6           3.2670    -0.2560     3.7780 o          1 7ED      -0.546000
     19 C31          3.9610    -1.3590     0.6580 ca         1 7ED      -0.090800
     20 C36          4.6890    -1.2220    -0.5090 ca         1 7ED      -0.104500
     21 C35          5.0550    -2.3430    -1.2300 ca         1 7ED      -0.150000
     22 C34          4.6900    -3.6040    -0.7840 ca         1 7ED       0.108100
     23 O7           5.0480    -4.7070    -1.4920 oh         1 7ED      -0.521100
     24 C33          3.9580    -3.7370     0.3880 ca         1 7ED      -0.150000
     25 C32          3.6000    -2.6150     1.1090 ca         1 7ED      -0.104500
     26 H1          -0.3610    -0.3090    -0.9740 hc         1 7ED       0.036367
     27 H2          -0.3610     0.9970     0.2190 hc         1 7ED       0.036367
     28 H3          -0.3610    -0.6890     0.7540 hc         1 7ED       0.036367
     29 H4           1.8910     0.8840    -0.5110 hc         1 7ED       0.046450
     30 H5           1.8910    -0.8850    -0.5110 hc         1 7ED       0.046450
     31 H6           1.6030    -0.8330     1.9800 hc         1 7ED       0.072700
     32 H7           0.5010     0.3240     3.6390 ha         1 7ED       0.133750
     33 H8          -0.1390     2.4350     4.7390 ha         1 7ED       0.138750
     34 H9          -0.2230     5.1460     3.5780 ho         1 7ED       0.417500
     35 H10          2.0880     4.6270     1.8150 ha         1 7ED       0.138750
     36 H11          2.7260     2.5120     0.7220 ha         1 7ED       0.133750
     37 H12          4.0060     0.7440     0.9910 hc         1 7ED       0.085200
     38 H13          5.3010    -1.4010     4.9330 h1         1 7ED       0.049450
     39 H14          5.4560     0.3570     5.0450 h1         1 7ED       0.049450
     40 H15          7.7560     0.2120     4.1480 hc         1 7ED       0.054700
     41 H16          7.6010    -1.5460     4.0360 hc         1 7ED       0.054700
     42 H17          7.2440    -1.6710     6.4790 hc         1 7ED       0.044700
     43 H18          7.4000     0.0870     6.5920 hc         1 7ED       0.044700
     44 H19          9.6990    -0.0590     5.6950 hc         1 7ED       0.043950
     45 H20          9.5440    -1.8170     5.5830 hc         1 7ED       0.043950
     46 H22          4.9740    -0.2370    -0.8570 ha         1 7ED       0.138000
     47 H23          5.6260    -2.2360    -2.1450 ha         1 7ED       0.142500
     48 H24          4.3780    -4.9060    -2.1240 ho         1 7ED       0.420000
     49 H25          3.6740    -4.7220     0.7400 ha         1 7ED       0.142500
     50 H26          3.0290    -2.7180     2.0230 ha         1 7ED       0.138000
     51 C10          9.6540    -1.0660     7.5930 c3         1 7ED      -0.079400
     52 C11         11.1750    -1.2050     7.6760 c3         1 7ED      -0.079400
     53 C12         11.5980    -1.3360     9.1400 c3         1 7ED      -0.085400
     54 C13         13.1180    -1.4760     9.2230 c3         1 7ED       0.147400
     55 O1          13.5190    -1.6000    10.6120 os         1 7ED      -0.424400
     56 C14         14.8330    -1.7320    10.8590 c          1 7ED       0.640100
     57 O2          15.6210    -1.7440     9.9440 o          1 7ED      -0.546000
     58 C15         15.3230    -1.8650    12.2780 c3         1 7ED      -0.059900
     59 C16         16.8470    -2.0000    12.2790 c3         1 7ED      -0.005400
     60 C17         17.3450    -2.1370    13.7200 c3         1 7ED      -0.079900
     61 C25         14.9260    -0.6420    13.0640 ca         1 7ED      -0.090800
     62 C19         17.2440    -3.2230    11.4940 ca         1 7ED      -0.085300
     63 C18         18.8740    -2.1460    13.7320 c3         1 7ED      -0.089600
     64 C26         14.1150    -0.7700    14.1760 ca         1 7ED      -0.104500
     65 C27         13.7500     0.3500    14.8990 ca         1 7ED      -0.150000
     66 C28         14.1990     1.6030    14.5070 ca         1 7ED       0.108100
     67 C29         15.0120     1.7280    13.3900 ca         1 7ED      -0.150000
     68 C30         15.3780     0.6050    12.6740 ca         1 7ED      -0.104500
     69 C20         18.0540    -3.0960    10.3810 ca         1 7ED      -0.100000
     70 C21         18.4190    -4.2160     9.6600 ca         1 7ED      -0.153250
     71 C22         17.9720    -5.4690    10.0520 ca         1 7ED       0.102100
     72 C23         17.1590    -5.5940    11.1680 ca         1 7ED      -0.153250
     73 C24         16.8010    -4.4720    11.8900 ca         1 7ED      -0.100000
     74 O4          13.8410     2.7070    15.2150 oh         1 7ED      -0.521100
     75 O3          18.3300    -6.5720     9.3440 oh         1 7ED      -0.523600
     76 H21          9.3430    -0.1830     8.1390 hc         1 7ED       0.043950
     77 H27          9.1870    -1.9420     8.0260 hc         1 7ED       0.043950
     78 H28         11.4870    -2.0880     7.1300 hc         1 7ED       0.044700
     79 H29         11.6420    -0.3290     7.2420 hc         1 7ED       0.044700
     80 H30         11.1310    -2.2120     9.5740 hc         1 7ED       0.054700
     81 H31         11.2870    -0.4540     9.6860 hc         1 7ED       0.054700
     82 H32         13.5850    -0.6000     8.7890 h1         1 7ED       0.049450
     83 H33         13.4300    -2.3580     8.6770 h1         1 7ED       0.049450
     84 H34         14.8810    -2.7440    12.7320 hc         1 7ED       0.085200
     85 H35         17.2880    -1.1210    11.8260 hc         1 7ED       0.072700
     86 H36         16.9840    -1.3010    14.3080 hc         1 7ED       0.046450
     87 H37         16.9750    -3.0620    14.1450 hc         1 7ED       0.046450
     88 H38         19.2320    -3.1220    13.4280 hc         1 7ED       0.036367
     89 H39         19.2450    -1.3950    13.0450 hc         1 7ED       0.036367
     90 H40         19.2290    -1.9270    14.7320 hc         1 7ED       0.036367
     91 H41         13.7650    -1.7490    14.4820 ha         1 7ED       0.138000
     92 H42         13.1150     0.2500    15.7700 ha         1 7ED       0.142500
     93 H43         15.3650     2.7050    13.0830 ha         1 7ED       0.142500
     94 H44         16.0130     0.7020    11.8020 ha         1 7ED       0.138000
     95 H45         18.4040    -2.1180    10.0750 ha         1 7ED       0.133750
     96 H46         19.0550    -4.1150     8.7880 ha         1 7ED       0.138750
     97 H47         16.8100    -6.5720    11.4780 ha         1 7ED       0.138750
     98 H48         16.1660    -4.5700    12.7630 ha         1 7ED       0.133750
     99 H49         14.4750     2.8630    15.8960 ho         1 7ED       0.420000
    100 H50         17.6930    -6.7310     8.6670 ho         1 7ED       0.417500
@<TRIPOS>BOND
     1     9    10 ar  
     2     9     7 ar  
     3    10     4 ar  
     4    18    12 2   
     5     8     7 1   
     6     7     6 ar  
     7    14    15 1   
     8    14    13 1   
     9    15    16 1   
    10    12    13 1   
    11    12    11 1   
    12     4     3 1   
    13     4     5 ar  
    14    16    17 1   
    15    25    24 ar  
    16    25    19 ar  
    17     3    11 1   
    18     3     2 1   
    19     6     5 ar  
    20    24    22 ar  
    21    11    19 1   
    22     1     2 1   
    23    19    20 ar  
    24    22    23 1   
    25    22    21 ar  
    26    20    21 ar  
    27     1    26 1   
    28     1    27 1   
    29     1    28 1   
    30     2    29 1   
    31     2    30 1   
    32     3    31 1   
    33     5    32 1   
    34     6    33 1   
    35     8    34 1   
    36     9    35 1   
    37    10    36 1   
    38    11    37 1   
    39    14    38 1   
    40    14    39 1   
    41    15    40 1   
    42    15    41 1   
    43    16    42 1   
    44    16    43 1   
    45    17    44 1   
    46    17    45 1   
    47    20    46 1   
    48    21    47 1   
    49    23    48 1   
    50    24    49 1   
    51    25    50 1   
    52    17    51 1   
    53    51    52 1   
    54    52    53 1   
    55    53    54 1   
    56    54    55 1   
    57    55    56 1   
    58    56    57 2   
    59    56    58 1   
    60    58    59 1   
    61    59    60 1   
    62    58    61 1   
    63    59    62 1   
    64    60    63 1   
    65    61    64 ar  
    66    64    65 ar  
    67    65    66 ar  
    68    66    67 ar  
    69    67    68 ar  
    70    68    61 ar  
    71    62    69 ar  
    72    69    70 ar  
    73    70    71 ar  
    74    71    72 ar  
    75    72    73 ar  
    76    73    62 ar  
    77    66    74 1   
    78    71    75 1   
    79    51    76 1   
    80    51    77 1   
    81    52    78 1   
    82    52    79 1   
    83    53    80 1   
    84    53    81 1   
    85    54    82 1   
    86    54    83 1   
    87    58    84 1   
    88    59    85 1   
    89    60    86 1   
    90    60    87 1   
    91    63    88 1   
    92    63    89 1   
    93    63    90 1   
    94    64    91 1   
    95    65    92 1   
    96    67    93 1   
    97    68    94 1   
    98    69    95 1   
    99    70    96 1   
   100    72    97 1   
   101    73    98 1   
   102    74    99 1   
   103    75   100 1   
@<TRIPOS>SUBSTRUCTURE
     1 7ED         1 TEMP              0 ****  ****    0 ROOT
