@<TRIPOS>MOLECULE
7EE
   58    62     1     0     0
SMALL
bcc


@<TRIPOS>ATOM
      1 C01          0.0000     0.0000     0.0000 ca         1 7EE      -0.153000
      2 C02          1.3870     0.0000     0.0000 ca         1 7EE       0.118100
      3 C03          2.0720     0.0000     1.2030 ca         1 7EE      -0.144000
      4 C04          1.3850     0.0060     2.4080 ca         1 7EE      -0.040300
      5 C05          0.0050     0.0120     2.4040 ca         1 7EE      -0.070300
      6 C06         -0.6820     0.0060     1.1980 ca         1 7EE      -0.098000
      7 C07          2.1980    -0.0070     3.6750 c3         1 7EE      -0.051100
      8 C08          1.3430     0.3590     4.8880 c3         1 7EE      -0.123400
      9 C09          0.0640    -0.4780     4.8420 c3         1 7EE      -0.033700
     10 C10         -0.7900     0.0350     3.6760 c3         1 7EE       0.014600
     11 C11         -0.7610    -0.3150     6.1020 c3         1 7EE      -0.051700
     12 C12         -1.9800    -1.2670     5.9560 c3         1 7EE      -0.066000
     13 C13         -2.8850    -0.7080     4.8780 c3         1 7EE       0.009600
     14 C14         -2.0880    -0.7510     3.5470 c3         1 7EE      -0.071400
     15 O01          2.0700    -0.0010    -1.1750 oh         1 7EE      -0.483100
     16 C15         -0.1220    -0.8310     7.3960 c3         1 7EE      -0.089400
     17 C16         -1.3500    -1.0920     8.3110 c3         1 7EE      -0.102400
     18 C17         -2.5570    -1.3160     7.3660 c3         1 7EE       0.306900
     19 C18         -1.4980    -2.6610     5.5500 c3         1 7EE      -0.048100
     20 O02         -3.1490    -2.5940     7.6150 oh         1 7EE      -0.601800
     21 C19         -3.5530    -0.2480     7.5480 c1         1 7EE      -0.140100
     22 C20         -4.3570     0.5930     7.7050 cg         1 7EE      -0.099000
     23 C21         -5.1670     1.7480     7.9590 ca         1 7EE      -0.022000
     24 C22         -6.2580     1.9490     8.8200 ca         1 7EE      -0.089500
     25 C23         -6.8130     3.2110     8.8140 ca         1 7EE      -0.096500
     26 C24         -6.4830     4.2410     8.1360 ca         1 7EE       0.060600
     27 C25         -5.6200     4.1490     7.4300 ca         1 7EE      -0.096500
     28 C26         -4.6800     3.0490     7.0430 ca         1 7EE      -0.089500
     29 N01         -7.4090     5.5170     8.1140 nv         1 7EE      -0.583200
     30 H1          -0.5850     0.1320    -0.9020 ha         1 7EE       0.116000
     31 H2           3.1310    -0.1700     1.3560 ha         1 7EE       0.118000
     32 H3          -1.7400     0.1560     1.0170 ha         1 7EE       0.112000
     33 H4           2.6970    -0.9310     3.9400 hc         1 7EE       0.043700
     34 H5           2.6900     0.8970     4.0130 hc         1 7EE       0.043700
     35 H6           1.7670    -0.4420     5.4800 hc         1 7EE       0.067700
     36 H7           1.5870     1.4050     4.7450 hc         1 7EE       0.067700
     37 H8           0.3090    -1.5220     4.6910 hc         1 7EE       0.058700
     38 H9          -1.0490     1.0660     3.8850 hc         1 7EE       0.034700
     39 H10         -1.0900     0.7110     6.2180 hc         1 7EE       0.038700
     40 H11         -3.7220    -1.3040     4.5330 hc         1 7EE       0.036700
     41 H12         -3.1580     0.2190     5.3670 hc         1 7EE       0.036700
     42 H13         -2.2000    -1.3250     2.6350 hc         1 7EE       0.022700
     43 H14         -2.7110     0.0500     3.1690 hc         1 7EE       0.022700
     44 H15          2.1860    -0.9350    -1.2440 ho         1 7EE       0.397000
     45 H16         -0.1210    -1.8800     7.1260 hc         1 7EE       0.067700
     46 H17          0.4950    -0.0970     7.9010 hc         1 7EE       0.067700
     47 H18         -1.2040    -2.0640     8.7660 hc         1 7EE       0.041700
     48 H19         -1.5220    -0.1420     8.8020 hc         1 7EE       0.041700
     49 H20         -2.1820    -3.2400     4.9420 hc         1 7EE       0.025700
     50 H21         -1.0910    -2.4950     4.5600 hc         1 7EE       0.025700
     51 H22         -0.6810    -3.0540     6.1430 hc         1 7EE       0.025700
     52 H23         -2.9520    -3.0440     8.4190 ho         1 7EE       0.404000
     53 H24         -6.4230     1.0020     9.3200 ha         1 7EE       0.133000
     54 H25         -7.5020     3.1480     9.6470 ha         1 7EE       0.089000
     55 H26         -5.2530     4.9690     6.8240 ha         1 7EE       0.089000
     56 H27         -3.6670     2.9320     6.6780 ha         1 7EE       0.133000
     57 H28         -6.9600     6.2940     8.5580 hn         1 7EE       0.286300
     58 H29         -8.3680     5.3080     7.9170 hn         1 7EE       0.286300
@<TRIPOS>BOND
     1     1     2 ar  
     2     1     6 ar  
     3     1    30 1   
     4     2     3 ar  
     5     2    15 1   
     6     3     4 ar  
     7     3    31 1   
     8     4     5 ar  
     9     4     7 1   
    10     5     6 ar  
    11     5    10 1   
    12     6    32 1   
    13     7     8 1   
    14     7    33 1   
    15     7    34 1   
    16     8     9 1   
    17     8    35 1   
    18     8    36 1   
    19     9    10 1   
    20     9    11 1   
    21     9    37 1   
    22    10    14 1   
    23    10    38 1   
    24    11    12 1   
    25    11    16 1   
    26    11    39 1   
    27    12    13 1   
    28    12    18 1   
    29    12    19 1   
    30    13    14 1   
    31    13    40 1   
    32    13    41 1   
    33    14    42 1   
    34    14    43 1   
    35    15    44 1   
    36    16    17 1   
    37    16    45 1   
    38    16    46 1   
    39    17    18 1   
    40    17    47 1   
    41    17    48 1   
    42    18    20 1   
    43    18    21 1   
    44    19    49 1   
    45    19    50 1   
    46    19    51 1   
    47    20    52 1   
    48    21    22 3   
    49    22    23 1   
    50    23    24 ar  
    51    23    28 ar  
    52    24    25 ar  
    53    24    53 1   
    54    25    26 ar  
    55    25    54 1   
    56    26    27 ar  
    57    26    29 1   
    58    27    28 ar  
    59    27    55 1   
    60    28    56 1   
    61    29    57 1   
    62    29    58 1   
@<TRIPOS>SUBSTRUCTURE
     1 7EE         1 TEMP              0 ****  ****    0 ROOT
