@<TRIPOS>MOLECULE
molecule
   58    62     1     0     0
SMALL
bcc


@<TRIPOS>ATOM
      1 C01          0.0000     0.0000     0.0000 ca         1 7EE      -0.161000
      2 C02          1.3870     0.0000     0.0000 ca         1 7EE       0.088100
      3 C03          2.0720     0.0000     1.2030 ca         1 7EE      -0.151000
      4 C04          1.3850     0.0060     2.4080 ca         1 7EE      -0.048300
      5 C05          0.0050     0.0120     2.4040 ca         1 7EE      -0.061300
      6 C06         -0.6820     0.0060     1.1980 ca         1 7EE      -0.127000
      7 C07          2.1980    -0.0070     3.6750 c3         1 7EE      -0.105100
      8 C08          1.3430     0.3590     4.8880 c3         1 7EE      -0.149400
      9 C09          0.0640    -0.4780     4.8420 c3         1 7EE      -0.043700
     10 C10         -0.7900     0.0350     3.6760 c3         1 7EE      -0.020400
     11 C11         -0.7610    -0.3150     6.1020 c3         1 7EE      -0.072700
     12 C12         -1.9800    -1.2670     5.9560 c3         1 7EE      -0.053000
     13 C13         -2.8850    -0.7080     4.8780 c3         1 7EE      -0.042400
     14 C14         -2.0880    -0.7510     3.5470 c3         1 7EE      -0.113400
     15 O01          2.0700    -0.0010    -1.1750 oh         1 7EE      -0.495100
     16 C15         -0.1220    -0.8310     7.3960 c3         1 7EE      -0.120400
     17 C16         -1.3500    -1.0920     8.3110 c3         1 7EE      -0.137400
     18 C17         -2.5570    -1.3160     7.3660 c3         1 7EE       0.257900
     19 C18         -1.4980    -2.6610     5.5500 c3         1 7EE      -0.111100
     20 O02         -3.1490    -2.5940     7.6150 oh         1 7EE      -0.617800
     21 C19         -3.5530    -0.2480     7.5480 c1         1 7EE      -0.125100
     22 C20         -4.3570     0.5930     7.7050 cg         1 7EE      -0.104000
     23 C21         -5.1670     1.7480     7.9590 ca         1 7EE      -0.045000
     24 C22         -6.2580     1.9490     8.8200 ca         1 7EE      -0.113500
     25 C23         -6.8130     3.2110     8.8140 ca         1 7EE      -0.135500
     26 C24         -6.4830     4.2410     8.1360 ca         1 7EE       0.186600
     27 C25         -5.6200     4.1490     7.4300 ca         1 7EE      -0.135500
     28 C26         -4.6800     3.0490     7.0430 ca         1 7EE      -0.113500
     29 N01         -7.4090     5.5170     8.1140 nv         1 7EE      -0.987200
     30 H1          -0.5850     0.1320    -0.9020 ha         1 7EE       0.141000
     31 H2           3.1310    -0.1700     1.3560 ha         1 7EE       0.141000
     32 H3          -1.7400     0.1560     1.0170 ha         1 7EE       0.135000
     33 H4           2.6970    -0.9310     3.9400 hc         1 7EE       0.068200
     34 H5           2.6900     0.8970     4.0130 hc         1 7EE       0.068200
     35 H6           1.7670    -0.4420     5.4800 hc         1 7EE       0.086700
     36 H7           1.5870     1.4050     4.7450 hc         1 7EE       0.086700
     37 H8           0.3090    -1.5220     4.6910 hc         1 7EE       0.073700
     38 H9          -1.0490     1.0660     3.8850 hc         1 7EE       0.057700
     39 H10         -1.0900     0.7110     6.2180 hc         1 7EE       0.058700
     40 H11         -3.7220    -1.3040     4.5330 hc         1 7EE       0.064200
     41 H12         -3.1580     0.2190     5.3670 hc         1 7EE       0.064200
     42 H13         -2.2000    -1.3250     2.6350 hc         1 7EE       0.047200
     43 H14         -2.7110     0.0500     3.1690 hc         1 7EE       0.047200
     44 H15          2.1860    -0.9350    -1.2440 ho         1 7EE       0.409000
     45 H16         -0.1210    -1.8800     7.1260 hc         1 7EE       0.087700
     46 H17          0.4950    -0.0970     7.9010 hc         1 7EE       0.087700
     47 H18         -1.2040    -2.0640     8.7660 hc         1 7EE       0.066700
     48 H19         -1.5220    -0.1420     8.8020 hc         1 7EE       0.066700
     49 H20         -2.1820    -3.2400     4.9420 hc         1 7EE       0.048033
     50 H21         -1.0910    -2.4950     4.5600 hc         1 7EE       0.048033
     51 H22         -0.6810    -3.0540     6.1430 hc         1 7EE       0.048033
     52 H23         -2.9520    -3.0440     8.4190 ho         1 7EE       0.417000
     53 H24         -6.4230     1.0020     9.3200 ha         1 7EE       0.167000
     54 H25         -7.5020     3.1480     9.6470 ha         1 7EE       0.117000
     55 H26         -5.2530     4.9690     6.8240 ha         1 7EE       0.117000
     56 H27         -3.6670     2.9320     6.6780 ha         1 7EE       0.167000
     57 H28         -6.9600     6.2940     8.5580 hn         1 7EE       0.434800
     58 H29         -8.3680     5.3080     7.9170 hn         1 7EE       0.434800
@<TRIPOS>BOND
     1    15     2 1
     2     1     2 ar
     3     1     6 ar
     4     2     3 ar
     5     6     5 ar
     6     3     4 ar
     7     5     4 ar
     8     5    10 1
     9     4     7 1
    10    10    14 1
    11    10     9 1
    12     7     8 1
    13    14    13 1
    14     8     9 1
    15     9    11 1
    16    13    12 1
    17    11    12 1
    18    11    16 1
    19    12    19 1
    20    12    18 1
    21    16    17 1
    22    18    17 1
    23    18    21 1
    24    18    20 1
    25    21    22 3
    26    22    23 1
    27    23    24 ar
    28    23    28 ar
    29    24    25 ar
    30    28    27 ar
    31    25    26 ar
    32    27    26 ar
    33    26    29 1
    34     1    30 1
    35     3    31 1
    36     6    32 1
    37     7    33 1
    38     7    34 1
    39     8    35 1
    40     8    36 1
    41     9    37 1
    42    10    38 1
    43    11    39 1
    44    13    40 1
    45    13    41 1
    46    14    42 1
    47    14    43 1
    48    15    44 1
    49    16    45 1
    50    16    46 1
    51    17    47 1
    52    17    48 1
    53    19    49 1
    54    19    50 1
    55    19    51 1
    56    20    52 1
    57    24    53 1
    58    25    54 1
    59    27    55 1
    60    28    56 1
    61    29    57 1
    62    29    58 1
@<TRIPOS>SUBSTRUCTURE
     1 7EE         1 TEMP              0 ****  ****    0 ROOT
