@<TRIPOS>MOLECULE
molecule
   43    45     1     0     0
SMALL
bcc


@<TRIPOS>ATOM
      1 O01          0.0000     0.0000     0.0000 oh         1 7EF      -0.494100
      2 C02          1.3590     0.0000     0.0000 ca         1 7EF       0.161100
      3 C03          2.0520     0.0000     1.1970 ca         1 7EF      -0.231000
      4 C04          3.4390     0.0000     1.1960 ca         1 7EF       0.149100
      5 O05          4.1170     0.0000     2.3730 oh         1 7EF      -0.519100
      6 C06          4.1380    -0.0010    -0.0050 ca         1 7EF      -0.184000
      7 C07          3.4590    -0.0010    -1.2030 ca         1 7EF      -0.066000
      8 C08          2.0620    -0.0060    -1.2130 ca         1 7EF      -0.089800
      9 C09          1.3300    -0.0130    -2.4930 cc         1 7EF       0.015700
     10 C10          0.9240     1.1100    -3.2180 ca         1 7EF      -0.186000
     11 C11          0.2360     0.6040    -4.4150 ca         1 7EF      -0.011000
     12 C12         -0.2840     1.5350    -5.3390 ca         1 7EF      -0.169300
     13 C13         -0.9960     1.0570    -6.5780 c3         1 7EF       0.681200
     14 F14         -0.1260     0.2750    -7.3430 f          1 7EF      -0.224300
     15 F15         -2.1090     0.2930    -6.2090 f          1 7EF      -0.224300
     16 F16         -1.4160     2.1600    -7.3290 f          1 7EF      -0.224300
     17 C17         -0.1380     2.8640    -5.1050 ca         1 7EF      -0.037000
     18 C18          0.5160     3.3420    -3.9680 ca         1 7EF      -0.189000
     19 C19          1.0400     2.5000    -3.0400 ca         1 7EF      -0.021000
     20 N20          0.2650    -0.7160    -4.3460 nc         1 7EF      -0.263400
     21 N21          0.9340    -1.1050    -3.1800 na         1 7EF       0.165800
     22 C22          1.1670    -2.4900    -2.7660 c3         1 7EF       0.097500
     23 C23          0.0140    -2.9620    -1.9190 c2         1 7EF      -0.222200
     24 C24         -0.6880    -4.0040    -2.2900 c2         1 7EF      -0.087400
     25 C25         -1.7530    -4.5590    -1.3800 c3         1 7EF      -0.061900
     26 C26         -0.4310    -4.6480    -3.6280 c3         1 7EF      -0.061900
     27 H1          -0.3140     0.5940     0.6610 ho         1 7EF       0.428000
     28 H2           1.5120    -0.0040     2.1360 ha         1 7EF       0.150000
     29 H3           4.3060     0.8890     2.6270 ho         1 7EF       0.426000
     30 H4           5.2220     0.0010     0.0010 ha         1 7EF       0.149000
     31 H5           4.0070    -0.0040    -2.1380 ha         1 7EF       0.150000
     32 H6          -0.5400     3.5730    -5.8190 ha         1 7EF       0.147000
     33 H7           0.6090     4.4120    -3.8230 ha         1 7EF       0.133000
     34 H8           1.5430     2.8970    -2.1660 ha         1 7EF       0.128000
     35 H9           2.0840    -2.5460    -2.1920 h1         1 7EF       0.077200
     36 H10          1.2520    -3.1200    -3.6440 h1         1 7EF       0.077200
     37 H11         -0.1720    -2.5010    -0.9560 ha         1 7EF       0.145000
     38 H12         -2.1140    -5.4990    -1.7780 hc         1 7EF       0.047533
     39 H13         -1.3360    -4.7210    -0.3930 hc         1 7EF       0.047533
     40 H14         -2.5740    -3.8560    -1.3130 hc         1 7EF       0.047533
     41 H15         -1.1060    -5.4850    -3.7620 hc         1 7EF       0.047533
     42 H16          0.5930    -5.0010    -3.6690 hc         1 7EF       0.047533
     43 H17         -0.5940    -3.9230    -4.4160 hc         1 7EF       0.047533
@<TRIPOS>BOND
     1     5     4 1   
     2     4     3 ar  
     3     4     6 ar  
     4     3     2 ar  
     5     6     7 ar  
     6     2     1 1   
     7     2     8 ar  
     8     7     8 ar  
     9     8     9 1   
    10    25    24 1   
    11     9    21 1   
    12     9    10 2   
    13    22    21 1   
    14    22    23 1   
    15    24    23 2   
    16    24    26 1   
    17    21    20 1   
    18    19    10 ar  
    19    19    18 ar  
    20    10    11 ar  
    21    18    17 ar  
    22    20    11 2   
    23    11    12 ar  
    24    17    12 ar  
    25    12    13 1   
    26    14    13 1   
    27    13    16 1   
    28    13    15 1   
    29     1    27 1   
    30     3    28 1   
    31     5    29 1   
    32     6    30 1   
    33     7    31 1   
    34    17    32 1   
    35    18    33 1   
    36    19    34 1   
    37    22    35 1   
    38    22    36 1   
    39    23    37 1   
    40    25    38 1   
    41    25    39 1   
    42    25    40 1   
    43    26    41 1   
    44    26    42 1   
    45    26    43 1   
@<TRIPOS>SUBSTRUCTURE
     1 7EF         1 TEMP              0 ****  ****    0 ROOT
