@<TRIPOS>MOLECULE
molecule
   39    41     1     0     0
SMALL
bcc


@<TRIPOS>ATOM
      1 O01          0.0000     0.0000     0.0000 oh         1 7EG      -0.523100
      2 C02          1.3590     0.0000     0.0000 ca         1 7EG       0.110100
      3 C03          2.0520     0.0000     1.2030 ca         1 7EG      -0.154000
      4 C04          3.4300     0.0010     1.2070 ca         1 7EG      -0.098500
      5 C05          2.0510    -0.0040    -1.2040 ca         1 7EG      -0.154000
      6 C06          3.4300    -0.0050    -1.2080 ca         1 7EG      -0.098500
      7 C07          4.1290     0.0010    -0.0010 cp         1 7EG      -0.058000
      8 C08          5.6090     0.0010    -0.0010 cp         1 7EG       0.018000
      9 C09          6.3170     1.1250    -0.4620 ca         1 7EG      -0.144900
     10 C10          5.5900     2.3100    -0.9480 ce         1 7EG       0.423800
     11 N11          6.2470     3.3430    -1.3720 n2         1 7EG      -0.409200
     12 O12          5.5470     4.4820    -1.8400 oh         1 7EG      -0.399500
     13 C13          7.7180     1.1120    -0.4550 ca         1 7EG       0.157100
     14 O14          8.4080     2.1930    -0.8990 oh         1 7EG      -0.476100
     15 C15          8.4000    -0.0050     0.0040 ca         1 7EG      -0.207000
     16 C16          7.7090    -1.1110     0.4570 ca         1 7EG      -0.074000
     17 C17          6.3160    -1.1170     0.4650 cq         1 7EG      -0.056000
     18 C18          5.5820    -2.3080     0.9540 cq         1 7EG      -0.050000
     19 C19          4.6480    -2.9380     0.1330 ca         1 7EG      -0.100000
     20 C20          3.9660    -4.0470     0.5910 ca         1 7EG      -0.153000
     21 C21          4.2090    -4.5340     1.8680 ca         1 7EG       0.108100
     22 O22          3.5370    -5.6260     2.3160 oh         1 7EG      -0.523100
     23 C23          5.1390    -3.9090     2.6870 ca         1 7EG      -0.153000
     24 C24          5.8280    -2.8040     2.2330 ca         1 7EG      -0.100000
     25 H1          -0.3140     0.8890    -0.0010 ho         1 7EG       0.421000
     26 H2           1.5080    -0.0000     2.1400 ha         1 7EG       0.143500
     27 H3           3.9690     0.0030     2.1460 ha         1 7EG       0.142500
     28 H4           1.5070    -0.0090    -2.1410 ha         1 7EG       0.143500
     29 H5           3.9700    -0.0070    -2.1480 ha         1 7EG       0.142500
     30 H6           4.5070     2.3170    -0.9520 h4         1 7EG       0.008800
     31 H7           6.1640     5.1230    -2.1540 ho         1 7EG       0.431000
     32 H8           9.1390     2.3570    -0.3260 ho         1 7EG       0.420000
     33 H9           9.4830    -0.0110     0.0040 ha         1 7EG       0.139000
     34 H10          8.2540    -1.9760     0.8150 ha         1 7EG       0.142000
     35 H11          4.4580    -2.5590    -0.8640 ha         1 7EG       0.138500
     36 H12          3.2410    -4.5380    -0.0470 ha         1 7EG       0.142500
     37 H13          2.7420    -5.3530     2.7430 ho         1 7EG       0.420000
     38 H14          5.3280    -4.2930     3.6820 ha         1 7EG       0.142500
     39 H15          6.5540    -2.3170     2.8730 ha         1 7EG       0.138500
@<TRIPOS>BOND
     1    22    21 1   
     2    21    20 ar  
     3    21    23 ar  
     4    20    19 ar  
     5    23    24 ar  
     6    19    18 1   
     7    24    18 2   
     8    18    17 1   
     9     1     2 1   
    10     5     2 ar  
    11     5     6 ar  
    12     2     3 ar  
    13     6     7 ar  
    14    17    16 1   
    15    17     8 2   
    16     3     4 ar  
    17     7     4 ar  
    18     7     8 1   
    19    16    15 ar  
    20     8     9 ar  
    21    15    13 ar  
    22     9    13 ar  
    23     9    10 1   
    24    13    14 1   
    25    10    11 2   
    26    11    12 1   
    27     1    25 1   
    28     3    26 1   
    29     4    27 1   
    30     5    28 1   
    31     6    29 1   
    32    10    30 1   
    33    12    31 1   
    34    14    32 1   
    35    15    33 1   
    36    16    34 1   
    37    19    35 1   
    38    20    36 1   
    39    22    37 1   
    40    23    38 1   
    41    24    39 1   
@<TRIPOS>SUBSTRUCTURE
     1 7EG         1 TEMP              0 ****  ****    0 ROOT
