@<TRIPOS>MOLECULE
7EG
   39    42     1     0     0
SMALL
bcc


@<TRIPOS>ATOM
      1 O01          0.0000     0.0000     0.0000 oh         1 7EG      -0.259000
      2 C02          1.3590     0.0000     0.0000 ca         1 7EG       0.082000
      3 C03          2.0520     0.0000     1.2030 ca         1 7EG      -0.139000
      4 C04          3.4300     0.0010     1.2070 ca         1 7EG      -0.053500
      5 C05          2.0510    -0.0040    -1.2040 ca         1 7EG      -0.139000
      6 C06          3.4300    -0.0050    -1.2080 ca         1 7EG      -0.053500
      7 C07          4.1290     0.0010    -0.0010 ca         1 7EG      -0.043000
      8 C08          5.6090     0.0010    -0.0010 c2         1 7EG       0.093000
      9 C09          6.3170     1.1250    -0.4620 c3         1 7EG      -0.172000
     10 C10          5.5900     2.3100    -0.9480 c2         1 7EG      -0.390000
     11 N11          6.2470     3.3430    -1.3720 n2         1 7EG       0.099000
     12 O12          5.5470     4.4820    -1.8400 oh         1 7EG      -0.234000
     13 C13          7.7180     1.1120    -0.4550 c2         1 7EG       0.107000
     14 O14          8.4080     2.1930    -0.8990 oh         1 7EG      -0.222000
     15 C15          8.4000    -0.0050     0.0040 c2         1 7EG      -0.206000
     16 C16          7.7090    -1.1110     0.4570 c2         1 7EG      -0.019000
     17 C17          6.3160    -1.1170     0.4650 c2         1 7EG      -0.071000
     18 C18          5.5820    -2.3080     0.9540 ca         1 7EG      -0.054000
     19 C19          4.6480    -2.9380     0.1330 ca         1 7EG      -0.070500
     20 C20          3.9660    -4.0470     0.5910 ca         1 7EG      -0.137000
     21 C21          4.2090    -4.5340     1.8680 ca         1 7EG       0.084000
     22 O22          3.5370    -5.6260     2.3160 oh         1 7EG      -0.256000
     23 C23          5.1390    -3.9090     2.6870 ca         1 7EG      -0.137000
     24 C24          5.8280    -2.8040     2.2330 ca         1 7EG      -0.070500
     25 H1          -0.3140     0.8890    -0.0010 ho         1 7EG       0.203000
     26 H2           1.5080    -0.0000     2.1400 ha         1 7EG       0.112500
     27 H3           3.9690     0.0030     2.1460 ha         1 7EG       0.105000
     28 H4           1.5070    -0.0090    -2.1410 ha         1 7EG       0.112500
     29 H5           3.9700    -0.0070    -2.1480 ha         1 7EG       0.105000
     30 H6           6.0520     1.5690    -1.5900 DU         1 7EG       0.324000
     31 H7           6.1490     5.2010    -1.9410 ho         1 7EG       0.204000
     32 H8           9.1440     2.3520    -0.3310 ho         1 7EG       0.211000
     33 H9           9.4830    -0.0110     0.0040 ha         1 7EG       0.116000
     34 H10          8.2540    -1.9760     0.8150 ha         1 7EG       0.112000
     35 H11          4.4580    -2.5590    -0.8640 ha         1 7EG       0.111000
     36 H12          3.2410    -4.5380    -0.0470 ha         1 7EG       0.115500
     37 H13          2.7420    -5.3530     2.7430 ho         1 7EG       0.204000
     38 H14          5.3280    -4.2930     3.6820 ha         1 7EG       0.115500
     39 H15          6.5540    -2.3170     2.8730 ha         1 7EG       0.111000
@<TRIPOS>BOND
     1     1     2 1   
     2     1    25 1   
     3     2     3 1   
     4     2     5 1   
     5     3     4 1   
     6     3    26 1   
     7     4     7 1   
     8     4    27 1   
     9     5     6 1   
    10     5    28 1   
    11     6     7 1   
    12     6    29 1   
    13     7     8 1   
    14     8     9 1   
    15     8    17 1   
    16     9    10 1   
    17     9    13 1   
    18     9    30 1   
    19    10    11 1   
    20    10    30 1   
    21    11    12 1   
    22    12    31 1   
    23    13    14 1   
    24    13    15 1   
    25    14    32 1   
    26    15    16 1   
    27    15    33 1   
    28    16    17 1   
    29    16    34 1   
    30    17    18 1   
    31    18    19 1   
    32    18    24 1   
    33    19    20 1   
    34    19    35 1   
    35    20    21 1   
    36    20    36 1   
    37    21    22 1   
    38    21    23 1   
    39    22    37 1   
    40    23    24 1   
    41    23    38 1   
    42    24    39 1   
@<TRIPOS>SUBSTRUCTURE
     1 7EG         1 TEMP              0 ****  ****    0 ROOT
