@<TRIPOS>MOLECULE
7EH
   29    31     1     0     0
SMALL
bcc


@<TRIPOS>ATOM
      1 N01          0.0000     0.0000     0.0000 nv         1 7EH      -0.560800
      2 C02          1.3790     0.0000     0.0000 cc         1 7EH       0.316700
      3 N03          2.1310     0.0000     1.0720 nd         1 7EH      -0.523100
      4 C04          3.4400    -0.0010     0.7060 ca         1 7EH      -0.041900
      5 C05          3.4810    -0.0000    -0.7000 ca         1 7EH       0.202800
      6 N06          2.1630    -0.0060    -1.1180 na         1 7EH       0.190000
      7 C07          1.6940    -0.0100    -2.5060 c3         1 7EH      -0.000400
      8 N08          4.6390    -0.0010    -1.3400 nb         1 7EH      -0.561000
      9 C09          5.7860    -0.0000    -0.6950 ca         1 7EH       0.408200
     10 C10          5.8320     0.0000     0.7000 cp         1 7EH      -0.167300
     11 C11          7.1360     0.0010     1.4070 cp         1 7EH      -0.020000
     12 C12          8.3250     0.0010     0.6820 ca         1 7EH      -0.102000
     13 C13          9.5360     0.0020     1.3460 ca         1 7EH      -0.095500
     14 C14          9.5680     0.0020     2.7290 ca         1 7EH      -0.103000
     15 C15          8.3910     0.0010     3.4540 ca         1 7EH      -0.095500
     16 C16          7.1750     0.0070     2.8010 ca         1 7EH      -0.102000
     17 C17          4.6390     0.0060     1.4200 ca         1 7EH      -0.010000
     18 H1          -0.5000     0.8670     0.0170 hn         1 7EH       0.276800
     19 H2          -0.5000    -0.8670     0.0270 hn         1 7EH       0.276800
     20 H3           1.0830    -0.8870    -2.6780 h1         1 7EH       0.023700
     21 H4           1.1070     0.8820    -2.6910 h1         1 7EH       0.023700
     22 H5           2.5460    -0.0260    -3.1750 h1         1 7EH       0.023700
     23 H6           6.7120    -0.0010    -1.2570 h4         1 7EH      -0.011900
     24 H7           8.3000     0.0010    -0.4010 ha         1 7EH       0.112000
     25 H8          10.4610     0.0020     0.7830 ha         1 7EH       0.102500
     26 H9          10.5200    -0.0000     3.2460 ha         1 7EH       0.102000
     27 H10          8.4230     0.0040     4.5360 ha         1 7EH       0.102500
     28 H11          6.2530     0.0070     3.3700 ha         1 7EH       0.112000
     29 H12          4.6420     0.0060     2.5040 ha         1 7EH       0.123000
@<TRIPOS>BOND
     1     1     2 1   
     2     1    18 1   
     3     1    19 1   
     4     2     3 2   
     5     2     6 1   
     6     3     4 1   
     7     4     5 ar  
     8     4    17 ar  
     9     5     6 1   
    10     5     8 ar  
    11     6     7 1   
    12     7    20 1   
    13     7    21 1   
    14     7    22 1   
    15     8     9 ar  
    16     9    10 ar  
    17     9    23 1   
    18    10    11 1   
    19    10    17 ar  
    20    11    12 ar  
    21    11    16 ar  
    22    12    13 ar  
    23    12    24 1   
    24    13    14 ar  
    25    13    25 1   
    26    14    15 ar  
    27    14    26 1   
    28    15    16 ar  
    29    15    27 1   
    30    16    28 1   
    31    17    29 1   
@<TRIPOS>SUBSTRUCTURE
     1 7EH         1 TEMP              0 ****  ****    0 ROOT
