@<TRIPOS>MOLECULE
molecule
   29    31     1     0     0
SMALL
bcc


@<TRIPOS>ATOM
      1 N01          0.0000     0.0000     0.0000 nv         1 7EH      -1.004800
      2 C02          1.3790     0.0000     0.0000 cc         1 7EH       0.649700
      3 N03          2.1310     0.0000     1.0720 nd         1 7EH      -0.606100
      4 C04          3.4400    -0.0010     0.7060 ca         1 7EH      -0.015900
      5 C05          3.4810    -0.0000    -0.7000 ca         1 7EH       0.417800
      6 N06          2.1630    -0.0060    -1.1180 na         1 7EH      -0.267000
      7 C07          1.6940    -0.0100    -2.5060 c3         1 7EH       0.041600
      8 N08          4.6390    -0.0010    -1.3400 nb         1 7EH      -0.700000
      9 C09          5.7860    -0.0000    -0.6950 ca         1 7EH       0.449200
     10 C10          5.8320     0.0000     0.7000 cp         1 7EH      -0.179300
     11 C11          7.1360     0.0010     1.4070 cp         1 7EH      -0.025000
     12 C12          8.3250     0.0010     0.6820 ca         1 7EH      -0.122000
     13 C13          9.5360     0.0020     1.3460 ca         1 7EH      -0.124000
     14 C14          9.5680     0.0020     2.7290 ca         1 7EH      -0.128000
     15 C15          8.3910     0.0010     3.4540 ca         1 7EH      -0.124000
     16 C16          7.1750     0.0070     2.8010 ca         1 7EH      -0.122000
     17 C17          4.6390     0.0060     1.4200 ca         1 7EH      -0.034000
     18 H1          -0.5000     0.8670     0.0170 hn         1 7EH       0.446800
     19 H2          -0.5000    -0.8670     0.0270 hn         1 7EH       0.446800
     20 H3           1.0830    -0.8870    -2.6780 h1         1 7EH       0.054700
     21 H4           1.1070     0.8820    -2.6910 h1         1 7EH       0.054700
     22 H5           2.5460    -0.0260    -3.1750 h1         1 7EH       0.054700
     23 H6           6.7120    -0.0010    -1.2570 h4         1 7EH       0.029100
     24 H7           8.3000     0.0010    -0.4010 ha         1 7EH       0.133000
     25 H8          10.4610     0.0020     0.7830 ha         1 7EH       0.131000
     26 H9          10.5200    -0.0000     3.2460 ha         1 7EH       0.129000
     27 H10          8.4230     0.0040     4.5360 ha         1 7EH       0.131000
     28 H11          6.2530     0.0070     3.3700 ha         1 7EH       0.133000
     29 H12          4.6420     0.0060     2.5040 ha         1 7EH       0.152000
@<TRIPOS>BOND
     1    15    14 ar
     2    15    16 ar
     3    14    13 ar
     4    16    11 ar
     5    13    12 ar
     6    11    12 ar
     7    11    10 1
     8    10     9 ar
     9    10    17 ar
    10     9     8 ar
    11    17     4 ar
    12     8     5 ar
    13     4     5 ar
    14     4     3 1
    15     5     6 1
    16     3     2 2
    17     6     7 1
    18     6     2 1
    19     2     1 1
    20     1    18 1
    21     1    19 1
    22     7    20 1
    23     7    21 1
    24     7    22 1
    25     9    23 1
    26    12    24 1
    27    13    25 1
    28    14    26 1
    29    15    27 1
    30    16    28 1
    31    17    29 1
@<TRIPOS>SUBSTRUCTURE
     1 7EH         1 TEMP              0 ****  ****    0 ROOT
