@<TRIPOS>MOLECULE
molecule
   82    85     1     0     0
SMALL
bcc


@<TRIPOS>ATOM
      1 C4           0.0000     0.0000     0.0000 c3         1 7EJ      -0.079400
      2 C5           1.5310     0.0000     0.0000 c3         1 7EJ      -0.105400
      3 C6           2.0410     0.0000     1.4420 c3         1 7EJ       0.029300
      4 C8           4.2440     1.2420     1.4380 cc         1 7EJ      -0.186900
      5 C10          5.6500    -0.4960     1.4430 cc         1 7EJ      -0.200000
      6 C13          2.6890    -2.7850     1.0550 ca         1 7EJ      -0.130000
      7 C15          3.2390    -5.0760     1.4810 ca         1 7EJ      -0.128000
      8 C17          4.8820    -3.3790     1.8720 ca         1 7EJ      -0.130000
      9 C21          5.9490     3.4270     1.9200 c3         1 7EJ       0.084000
     10 C22          6.6890     3.3270     0.5850 c3         1 7EJ      -0.115700
     11 C24          6.5250     4.6370    -0.1880 c3         1 7EJ      -0.090100
     12 C1          -2.5210     0.2340    -2.7360 c3         1 7EJ       0.130700
     13 C3          -0.5110     0.1230    -1.4370 c3         1 7EJ       0.138400
     14 N7           3.5030     0.0820     1.4430 na         1 7EJ       0.005900
     15 C9           5.5800     0.8960     1.4340 cc         1 7EJ      -0.199000
     16 C11          4.3590    -0.9800     1.4490 cd         1 7EJ      -0.050300
     17 C12          3.9700    -2.4060     1.4590 ca         1 7EJ      -0.011000
     18 C14          2.3300    -4.1170     1.0710 ca         1 7EJ      -0.124000
     19 C16          4.5120    -4.7070     1.8780 ca         1 7EJ      -0.124000
     20 O19          2.5260     2.7950     1.2070 o          1 7EJ      -0.631100
     21 N20          4.5230     3.6520     1.6730 n          1 7EJ      -0.472800
     22 C23          8.1740     3.0700     0.8440 c3         1 7EJ      -0.090100
     23 C25          3.9830     5.0140     1.6870 c3         1 7EJ       0.129700
     24 C27          3.0120     5.1660     2.8610 c3         1 7EJ       0.135800
     25 N28          2.4550     6.5250     2.8650 n7         1 7EJ      -0.824200
     26 C29          1.6930     6.7890     1.6370 c3         1 7EJ       0.163800
     27 C30          2.6230     6.6850     0.4260 c3         1 7EJ      -0.140700
     28 C32          3.2360     5.2820     0.3780 c3         1 7EJ      -0.095400
     29 C33          1.8370     6.9340    -0.8350 c          1 7EJ       0.668100
     30 O34          1.4010     6.0000    -1.4720 o          1 7EJ      -0.599100
     31 N35          1.6200     8.1970    -1.2550 n          1 7EJ      -0.497800
     32 C36          2.2300     9.3410    -0.5610 c3         1 7EJ       0.065500
     33 C37          1.1300    10.3660    -0.2560 c3         1 7EJ       0.120400
     34 O38          0.4160    10.6600    -1.4590 os         1 7EJ      -0.419600
     35 C39         -0.2640     9.5370    -2.0260 c3         1 7EJ       0.120400
     36 C40          0.7700     8.4710    -2.4230 c3         1 7EJ       0.065500
     37 H1          -0.3610    -0.9250     0.4330 hc         1 7EJ       0.054700
     38 H2          -0.3610     0.8380     0.5840 hc         1 7EJ       0.054700
     39 H3           1.8920     0.8850    -0.5110 hc         1 7EJ       0.063200
     40 H4           1.8920    -0.8840    -0.5110 hc         1 7EJ       0.063200
     41 H5           1.6310     0.8530     1.9700 h1         1 7EJ       0.079700
     42 H6           1.7300    -0.9130     1.9350 h1         1 7EJ       0.079700
     43 H7           6.5550    -1.0910     1.4440 ha         1 7EJ       0.151000
     44 H8           1.9770    -2.0340     0.7340 ha         1 7EJ       0.142500
     45 H9           2.9520    -6.1210     1.4890 ha         1 7EJ       0.130000
     46 H10          5.8790    -3.0910     2.1850 ha         1 7EJ       0.142500
     47 H11          6.0780     2.5060     2.4750 h1         1 7EJ       0.066200
     48 H12          6.3500     4.2530     2.4950 h1         1 7EJ       0.066200
     49 H13          6.2780     2.5110     0.0040 hc         1 7EJ       0.075700
     50 H14          7.4050     4.8110    -0.7950 hc         1 7EJ       0.037700
     51 H15          5.6530     4.5710    -0.8270 hc         1 7EJ       0.037700
     52 H16          6.4000     5.4550     0.5110 hc         1 7EJ       0.037700
     53 H17         -3.6000     0.2510    -2.6490 h1         1 7EJ       0.029367
     54 H18         -2.2210    -0.6140    -3.3410 h1         1 7EJ       0.029367
     55 H19         -2.1820     1.1490    -3.2050 h1         1 7EJ       0.029367
     56 H20         -0.1500     1.0480    -1.8700 h1         1 7EJ       0.026700
     57 H21         -0.1490    -0.7140    -2.0210 h1         1 7EJ       0.026700
     58 H22          6.4210     1.5790     1.4290 ha         1 7EJ       0.182000
     59 H23          1.3360    -4.4120     0.7590 ha         1 7EJ       0.132000
     60 H24          5.2180    -5.4640     2.1970 ha         1 7EJ       0.132000
     61 H25          8.2830     2.2400     1.5330 hc         1 7EJ       0.037700
     62 H26          8.6680     2.8300    -0.0900 hc         1 7EJ       0.037700
     63 H27          8.6250     3.9560     1.2740 hc         1 7EJ       0.037700
     64 H28          4.7910     5.7280     1.7940 h1         1 7EJ       0.067700
     65 H29          3.5420     4.9930     3.7900 h1         1 7EJ       0.051200
     66 H30          2.2080     4.4480     2.7580 h1         1 7EJ       0.051200
     67 H31          1.8560     6.6380     3.6590 hn         1 7EJ       0.360800
     68 H33          1.2720     7.7860     1.6820 h1         1 7EJ       0.042700
     69 H34          0.8980     6.0600     1.5430 h1         1 7EJ       0.042700
     70 H35          3.4140     7.4200     0.5150 hc         1 7EJ       0.066700
     71 H36          2.4490     4.5490     0.2550 hc         1 7EJ       0.083200
     72 H37          3.9300     5.2200    -0.4520 hc         1 7EJ       0.083200
     73 H38          2.9820     9.7930    -1.1960 h1         1 7EJ       0.065700
     74 H39          2.6810     9.0070     0.3660 h1         1 7EJ       0.065700
     75 H40          1.5790    11.2740     0.1280 h1         1 7EJ       0.054450
     76 H41          0.4470     9.9540     0.4770 h1         1 7EJ       0.054450
     77 H42         -0.9470     9.1220    -1.2950 h1         1 7EJ       0.054450
     78 H43         -0.8120     9.8530    -2.9050 h1         1 7EJ       0.054450
     79 H44          0.2600     7.5640    -2.7240 h1         1 7EJ       0.065700
     80 H45          1.3790     8.8410    -3.2390 h1         1 7EJ       0.065700
     81 C18          3.7070     2.6070     1.4300 c          1 7EJ       0.709700
     82 O2          -1.9390     0.1220    -1.4360 os         1 7EJ      -0.432600
@<TRIPOS>BOND
     1    19     7 ar
     2    19     8 ar
     3     7    18 ar
     4     8    17 ar
     5    18     6 ar
     6    17     6 ar
     7    17    16 1
     8     5    16 2
     9     5    15 1
    10    16    14 1
    11    15     4 2
    12    14     3 1
    13    14     4 1
    14     3     2 1
    15     4    81 1
    16    20    81 2
    17    81    21 1
    18     1     2 1
    19     1    13 1
    20    21    23 1
    21    21     9 1
    22    82    13 1
    23    82    12 1
    24    28    23 1
    25    28    27 1
    26    23    24 1
    27     9    10 1
    28    32    31 1
    29    32    33 1
    30    27    29 1
    31    27    26 1
    32    31    29 1
    33    31    36 1
    34    29    30 2
    35    22    10 1
    36    36    35 1
    37    10    11 1
    38    24    25 1
    39    33    34 1
    40    34    35 1
    41    25    26 1
    42     1    37 1
    43     1    38 1
    44     2    39 1
    45     2    40 1
    46     3    41 1
    47     3    42 1
    48     5    43 1
    49     6    44 1
    50     7    45 1
    51     8    46 1
    52     9    47 1
    53     9    48 1
    54    10    49 1
    55    11    50 1
    56    11    51 1
    57    11    52 1
    58    12    53 1
    59    12    54 1
    60    12    55 1
    61    13    56 1
    62    13    57 1
    63    15    58 1
    64    18    59 1
    65    19    60 1
    66    22    61 1
    67    22    62 1
    68    22    63 1
    69    23    64 1
    70    24    65 1
    71    24    66 1
    72    25    67 1
    73    26    68 1
    74    26    69 1
    75    27    70 1
    76    28    71 1
    77    28    72 1
    78    32    73 1
    79    32    74 1
    80    33    75 1
    81    33    76 1
    82    35    77 1
    83    35    78 1
    84    36    79 1
    85    36    80 1
@<TRIPOS>SUBSTRUCTURE
     1 7EJ         1 TEMP              0 ****  ****    0 ROOT
