@<TRIPOS>MOLECULE
molecule
   80    83     1     0     0
SMALL
bcc


@<TRIPOS>ATOM
      1 C4           0.0000     0.0000     0.0000 c3         1 7EK      -0.079400
      2 C5           1.5300     0.0000     0.0000 c3         1 7EK      -0.074400
      3 C6           2.0390     0.0000     1.4420 c3         1 7EK      -0.027100
      4 C7           3.5410    -0.1230     1.4450 cc         1 7EK      -0.097900
      5 C8           4.4430     0.9050     1.4520 cd         1 7EK       0.192800
      6 C13          4.2880    -3.5310     0.5960 ca         1 7EK      -0.119000
      7 C15          2.7240    -5.1470     1.4220 ca         1 7EK      -0.119000
      8 C17          2.6900    -2.9110     2.2800 ca         1 7EK      -0.119000
      9 C21          6.4730     2.8320     1.1090 c3         1 7EK       0.075000
     10 C22          6.7340     2.7720    -0.3970 c3         1 7EK      -0.089700
     11 C24          8.2070     2.4420    -0.6460 c3         1 7EK      -0.089100
     12 C1          -2.5200     0.0010    -2.7490 c3         1 7EK       0.130700
     13 O2          -1.9390     0.0010    -1.4430 os         1 7EK      -0.431600
     14 C3          -0.5090     0.0010    -1.4430 c3         1 7EK       0.138400
     15 N9           5.6820     0.3840     1.4510 nd         1 7EK      -0.328000
     16 N10          5.6090    -0.9020     1.4450 nc         1 7EK      -0.183800
     17 N11          4.2560    -1.2690     1.4460 na         1 7EK       0.145300
     18 C12          3.7430    -2.5730     1.4410 ca         1 7EK       0.005800
     19 C14          3.7770    -4.8150     0.5890 ca         1 7EK      -0.116500
     20 C16          2.1790    -4.1950     2.2640 ca         1 7EK      -0.116500
     21 C18          4.1120     2.3420     1.4560 c          1 7EK       0.613600
     22 O19          2.9540     2.6990     1.5590 o          1 7EK      -0.624100
     23 N20          5.0930     3.2600     1.3490 n          1 7EK      -0.468800
     24 C23          5.8560     1.6880    -1.0240 c3         1 7EK      -0.089100
     25 C25          4.7780     4.6860     1.4720 c3         1 7EK       0.127700
     26 C27          4.1680     4.9580     2.8490 c3         1 7EK       0.134800
     27 N28          3.8330     6.3830     2.9640 n7         1 7EK      -0.824200
     28 C29          2.8360     6.7770     1.9620 c3         1 7EK       0.165800
     29 C30          3.4060     6.5590     0.5590 c3         1 7EK      -0.141700
     30 C31          3.7760     5.0830     0.3860 c3         1 7EK      -0.091400
     31 C32          2.3740     6.9430    -0.4700 c          1 7EK       0.668100
     32 O33          1.5620     6.1270    -0.8480 o          1 7EK      -0.600100
     33 N34          2.3540     8.1960    -0.9690 n          1 7EK      -0.497800
     34 C35          1.2950     8.6240    -1.8960 c3         1 7EK       0.065500
     35 C36          0.7060     9.9420    -1.3800 c3         1 7EK       0.120400
     36 O37          1.7660    10.8740    -1.1520 os         1 7EK      -0.419600
     37 C38          2.7000    10.4650    -0.1510 c3         1 7EK       0.120400
     38 C39          3.3880     9.1750    -0.6000 c3         1 7EK       0.065500
     39 H1          -0.3610    -0.8850     0.5100 hc         1 7EK       0.055700
     40 H2          -0.3610     0.8840     0.5110 hc         1 7EK       0.055700
     41 H3           1.8910     0.8850    -0.5110 hc         1 7EK       0.051200
     42 H4           1.8910    -0.8840    -0.5110 hc         1 7EK       0.051200
     43 H5           1.6080    -0.8370     1.9780 hc         1 7EK       0.079700
     44 H6           1.7520     0.9250     1.9270 hc         1 7EK       0.079700
     45 H7           5.1110    -3.2720    -0.0580 ha         1 7EK       0.150000
     46 H8           2.3240    -6.1530     1.4120 ha         1 7EK       0.138000
     47 H9           2.2630    -2.1660     2.9400 ha         1 7EK       0.150000
     48 H10          6.6270     1.8500     1.5420 h1         1 7EK       0.079700
     49 H11          7.1550     3.5380     1.5660 h1         1 7EK       0.079700
     50 H12          6.4980     3.7300    -0.8430 hc         1 7EK       0.047700
     51 H13          8.4650     1.5250    -0.1290 hc         1 7EK       0.036533
     52 H14          8.8260     3.2510    -0.2770 hc         1 7EK       0.036533
     53 H15          8.3740     2.3160    -1.7090 hc         1 7EK       0.036533
     54 H16         -3.5990    -0.0120    -2.6640 h1         1 7EK       0.028700
     55 H17         -2.1890    -0.8760    -3.2910 h1         1 7EK       0.028700
     56 H18         -2.2100     0.8930    -3.2820 h1         1 7EK       0.028700
     57 H19         -0.1480     0.8860    -1.9530 h1         1 7EK       0.025200
     58 H20         -0.1480    -0.8830    -1.9540 h1         1 7EK       0.025200
     59 H21          4.2020    -5.5630    -0.0690 ha         1 7EK       0.141000
     60 H22          1.3560    -4.4580     2.9170 ha         1 7EK       0.141000
     61 H23          4.8220     1.8580    -0.7500 hc         1 7EK       0.036533
     62 H24          6.1700     0.7150    -0.6640 hc         1 7EK       0.036533
     63 H25          5.9540     1.7230    -2.1020 hc         1 7EK       0.036533
     64 H26          5.6830     5.2710     1.3570 h1         1 7EK       0.068700
     65 H27          3.2680     4.3660     2.9670 h1         1 7EK       0.053700
     66 H28          4.8840     4.6930     3.6180 h1         1 7EK       0.053700
     67 H29          3.4760     6.5690     3.8810 hn         1 7EK       0.360800
     68 H31          1.9450     6.1730     2.0850 h1         1 7EK       0.042700
     69 H32          2.5900     7.8240     2.0910 h1         1 7EK       0.042700
     70 H33          4.2930     7.1690     0.4330 hc         1 7EK       0.065700
     71 H34          2.8840     4.4740     0.4780 hc         1 7EK       0.078200
     72 H35          4.2220     4.9350    -0.5900 hc         1 7EK       0.078200
     73 H36          0.5190     7.8700    -1.9360 h1         1 7EK       0.065700
     74 H37          1.7150     8.7750    -2.8840 h1         1 7EK       0.065700
     75 H38          0.0240    10.3450    -2.1190 h1         1 7EK       0.054200
     76 H39          0.1780     9.7620    -0.4520 h1         1 7EK       0.054200
     77 H40          3.4430    11.2410    -0.0130 h1         1 7EK       0.054200
     78 H41          2.1760    10.2890     0.7810 h1         1 7EK       0.054200
     79 H42          3.9870     8.7820     0.2130 h1         1 7EK       0.065700
     80 H43          4.0170     9.3790    -1.4570 h1         1 7EK       0.065700
@<TRIPOS>BOND
     1    19     7 ar
     2    19     6 ar
     3     7    20 ar
     4     6    18 ar
     5    20     8 ar
     6    18     8 ar
     7    18    17 1
     8    16    17 1
     9    16    15 2
    10    17     4 1
    11    15     5 1
    12     4     3 1
    13     4     5 2
    14     3     2 1
    15     5    21 1
    16    22    21 2
    17    21    23 1
    18     2     1 1
    19     1    14 1
    20    23    25 1
    21    23     9 1
    22    14    13 1
    23    13    12 1
    24    30    25 1
    25    30    29 1
    26    25    26 1
    27     9    10 1
    28    10    11 1
    29    10    24 1
    30    29    31 1
    31    29    28 1
    32    32    31 2
    33    31    33 1
    34    33    34 1
    35    33    38 1
    36    34    35 1
    37    38    37 1
    38    26    27 1
    39    27    28 1
    40    37    36 1
    41    36    35 1
    42     1    39 1
    43     1    40 1
    44     2    41 1
    45     2    42 1
    46     3    43 1
    47     3    44 1
    48     6    45 1
    49     7    46 1
    50     8    47 1
    51     9    48 1
    52     9    49 1
    53    10    50 1
    54    11    51 1
    55    11    52 1
    56    11    53 1
    57    12    54 1
    58    12    55 1
    59    12    56 1
    60    14    57 1
    61    14    58 1
    62    19    59 1
    63    20    60 1
    64    24    61 1
    65    24    62 1
    66    24    63 1
    67    25    64 1
    68    26    65 1
    69    26    66 1
    70    27    67 1
    71    28    68 1
    72    28    69 1
    73    29    70 1
    74    30    71 1
    75    30    72 1
    76    34    73 1
    77    34    74 1
    78    35    75 1
    79    35    76 1
    80    37    77 1
    81    37    78 1
    82    38    79 1
    83    38    80 1
@<TRIPOS>SUBSTRUCTURE
     1 7EK         1 TEMP              0 ****  ****    0 ROOT
