@<TRIPOS>MOLECULE
molecule
   28    29     1     0     0
SMALL
bcc


@<TRIPOS>ATOM
      1 O01          0.0000     0.0000     0.0000 oh         1 7EL      -0.522100
      2 C02          1.3580     0.0000     0.0000 ca         1 7EL       0.114100
      3 C03          2.0510     0.0000     1.2030 ca         1 7EL      -0.156000
      4 C04          3.4310     0.0000     1.2060 ca         1 7EL      -0.091500
      5 C05          4.1290    -0.0010    -0.0010 cp         1 7EL      -0.065000
      6 C06          5.6110    -0.0020    -0.0020 cp         1 7EL       0.004000
      7 C07          6.3060    -0.9270    -0.7780 ca         1 7EL      -0.025600
      8 Cl           5.4370    -2.0780    -1.7430 cl         1 7EL      -0.085400
      9 C09          7.6900    -0.9270    -0.7780 ca         1 7EL       0.155100
     10 O10          8.3710    -1.8280    -1.5340 oh         1 7EL      -0.482100
     11 C11          8.3880     0.0040     0.0030 ca         1 7EL      -0.143900
     12 C12          9.8630     0.0080     0.0050 ce         1 7EL       0.421800
     13 N13         10.5140    -0.8480    -0.7140 n2         1 7EL      -0.404200
     14 O14         11.9300    -0.8450    -0.7120 oh         1 7EL      -0.395500
     15 C15          7.6840     0.9290     0.7790 ca         1 7EL      -0.088000
     16 C16          6.3090     0.9290     0.7710 ca         1 7EL      -0.132000
     17 C17          3.4300    -0.0010    -1.2070 ca         1 7EL      -0.091500
     18 C18          2.0510    -0.0060    -1.2040 ca         1 7EL      -0.156000
     19 H1          -0.3150     0.8890    -0.0010 ho         1 7EL       0.421000
     20 H2           1.5080     0.0010     2.1400 ha         1 7EL       0.143500
     21 H3           3.9710     0.0000     2.1450 ha         1 7EL       0.142000
     22 H4           8.1810    -2.7000    -1.2310 ho         1 7EL       0.428000
     23 H5          10.4010     0.7290     0.6090 h4         1 7EL       0.003800
     24 H6          12.2470    -1.5230    -1.2850 ho         1 7EL       0.433000
     25 H7           8.2220     1.6510     1.3820 ha         1 7EL       0.143000
     26 H8           5.7650     1.6470     1.3730 ha         1 7EL       0.146000
     27 H9           3.9700    -0.0030    -2.1470 ha         1 7EL       0.142000
     28 H10          1.5070    -0.0060    -2.1410 ha         1 7EL       0.143500
@<TRIPOS>BOND
     1    18    17 ar  
     2    18     2 ar  
     3     1     2 1   
     4    17     5 ar  
     5     2     3 ar  
     6     5     6 1   
     7     5     4 ar  
     8    16    15 ar  
     9    16     6 ar  
    10     3     4 ar  
    11    15    11 ar  
    12     6     7 ar  
    13    13    14 1   
    14    13    12 2   
    15    11     9 ar  
    16    11    12 1   
    17     7     9 ar  
    18     7     8 1   
    19     9    10 1   
    20     1    19 1   
    21     3    20 1   
    22     4    21 1   
    23    10    22 1   
    24    12    23 1   
    25    14    24 1   
    26    15    25 1   
    27    16    26 1   
    28    17    27 1   
    29    18    28 1   
@<TRIPOS>SUBSTRUCTURE
     1 7EL         1 TEMP              0 ****  ****    0 ROOT
