@<TRIPOS>MOLECULE
7EL
   28    30     1     0     0
SMALL
bcc


@<TRIPOS>ATOM
      1 O01          0.0000     0.0000     0.0000 oh         1 7EL      -0.254000
      2 C02          1.3580     0.0000     0.0000 ca         1 7EL       0.091000
      3 C03          2.0510     0.0000     1.2030 ca         1 7EL      -0.139000
      4 C04          3.4310     0.0000     1.2060 ca         1 7EL      -0.062500
      5 C05          4.1290    -0.0010    -0.0010 ca         1 7EL      -0.079000
      6 C06          5.6110    -0.0020    -0.0020 c2         1 7EL       0.046000
      7 C07          6.3060    -0.9270    -0.7780 c2         1 7EL      -0.207000
      8 Cl           5.4370    -2.0780    -1.7430 cl         1 7EL       0.085000
      9 C09          7.6900    -0.9270    -0.7780 c2         1 7EL       0.107000
     10 O10          8.3710    -1.8280    -1.5340 oh         1 7EL      -0.228000
     11 C11          8.3880     0.0040     0.0030 c3         1 7EL      -0.173000
     12 C12          9.8630     0.0080     0.0050 c2         1 7EL      -0.395000
     13 N13         10.5140    -0.8480    -0.7140 n2         1 7EL       0.108000
     14 O14         11.9300    -0.8450    -0.7120 oh         1 7EL      -0.232000
     15 C15          7.6840     0.9290     0.7790 c2         1 7EL       0.011000
     16 C16          6.3090     0.9290     0.7710 c2         1 7EL      -0.137000
     17 C17          3.4300    -0.0010    -1.2070 ca         1 7EL      -0.062500
     18 C18          2.0510    -0.0060    -1.2040 ca         1 7EL      -0.139000
     19 H1          -0.3140     0.8890    -0.0010 ho         1 7EL       0.204000
     20 H2           1.5080     0.0010     2.1400 ha         1 7EL       0.117000
     21 H3           3.9710     0.0000     2.1450 ha         1 7EL       0.113000
     22 H4           8.0770    -2.6990    -1.3260 ho         1 7EL       0.217000
     23 H5           9.2510     0.4260    -0.7860 DU         1 7EL       0.324000
     24 H6          12.2470    -1.6210    -1.1430 ho         1 7EL       0.205000
     25 H7           8.2220     1.6510     1.3820 ha         1 7EL       0.127000
     26 H8           5.7650     1.6470     1.3730 ha         1 7EL       0.121000
     27 H9           3.9700    -0.0040    -2.1460 ha         1 7EL       0.113000
     28 H10          1.5070    -0.0060    -2.1410 ha         1 7EL       0.117000
@<TRIPOS>BOND
     1     1     2 1   
     2     1    19 1   
     3     2     3 1   
     4     2    18 1   
     5     3     4 1   
     6     3    20 1   
     7     4     5 1   
     8     4    21 1   
     9     5     6 1   
    10     5    17 1   
    11     6     7 1   
    12     6    16 1   
    13     7     8 1   
    14     7     9 1   
    15     9    10 1   
    16     9    11 1   
    17    10    22 1   
    18    11    12 1   
    19    11    15 1   
    20    11    23 1   
    21    12    13 1   
    22    12    23 1   
    23    13    14 1   
    24    14    24 1   
    25    15    16 1   
    26    15    25 1   
    27    16    26 1   
    28    17    18 1   
    29    17    27 1   
    30    18    28 1   
@<TRIPOS>SUBSTRUCTURE
     1 7EL         1 TEMP              0 ****  ****    0 ROOT
