@<TRIPOS>MOLECULE
molecule
   42    45     1     0     0
SMALL
bcc


@<TRIPOS>ATOM
      1 O01          0.0000     0.0000     0.0000 oh         1 7EM      -0.521100
      2 C02          1.3590     0.0000     0.0000 ca         1 7EM       0.106100
      3 C03          2.0520     0.0000     1.2030 ca         1 7EM      -0.148000
      4 C04          3.4300     0.0000     1.2080 ca         1 7EM      -0.105500
      5 C05          4.1300     0.0010    -0.0010 ca         1 7EM      -0.016000
      6 C06          5.6080     0.0010    -0.0000 cc         1 7EM       0.012900
      7 C07          6.3790     0.0080    -1.1040 cc         1 7EM      -0.135000
      8 C08          7.7430     0.0110    -0.8630 cc         1 7EM      -0.058000
      9 C09          8.7530     0.0180    -1.9480 ca         1 7EM      -0.033000
     10 C10          8.7370    -0.9770    -2.9250 ca         1 7EM      -0.101500
     11 C11          9.6770    -0.9680    -3.9340 ca         1 7EM      -0.155000
     12 C12         10.6400     0.0320    -3.9770 ca         1 7EM       0.105100
     13 O13         11.5660     0.0380    -4.9730 oh         1 7EM      -0.522100
     14 C14         10.6600     1.0240    -3.0070 ca         1 7EM      -0.155000
     15 C15          9.7180     1.0240    -1.9990 ca         1 7EM      -0.101500
     16 C16          8.0780     0.0100     0.4670 cd         1 7EM       0.018900
     17 C17          9.4540     0.0130     0.9990 ca         1 7EM      -0.024000
     18 C18          9.8110     0.9070     2.0120 ca         1 7EM      -0.097500
     19 C19         11.0990     0.9080     2.5050 ca         1 7EM      -0.154500
     20 C20         12.0400     0.0220     1.9980 ca         1 7EM       0.109100
     21 O21         13.3080     0.0270     2.4880 oh         1 7EM      -0.522100
     22 C22         11.6890    -0.8680     0.9910 ca         1 7EM      -0.154500
     23 C23         10.4040    -0.8790     0.4950 ca         1 7EM      -0.097500
     24 S24          6.6150     0.0010     1.4410 ss         1 7EM      -0.107800
     25 C25          3.4300     0.0010    -1.2080 ca         1 7EM      -0.105500
     26 C26          2.0520    -0.0040    -1.2040 ca         1 7EM      -0.148000
     27 H1          -0.3140     0.8890    -0.0010 ho         1 7EM       0.420000
     28 H2           1.5090    -0.0010     2.1400 ha         1 7EM       0.143000
     29 H3           3.9690     0.0000     2.1470 ha         1 7EM       0.137500
     30 H4           5.9640     0.0100    -2.1050 ha         1 7EM       0.155000
     31 H5           7.9860    -1.7570    -2.8910 ha         1 7EM       0.140500
     32 H6           9.6640    -1.7410    -4.6920 ha         1 7EM       0.141500
     33 H7          12.3210    -0.4580    -4.7030 ho         1 7EM       0.418000
     34 H8          11.4110     1.8040    -3.0450 ha         1 7EM       0.141500
     35 H9           9.7340     1.7990    -1.2420 ha         1 7EM       0.140500
     36 H10          9.0780     1.5990     2.4080 ha         1 7EM       0.142000
     37 H11         11.3760     1.6010     3.2910 ha         1 7EM       0.142500
     38 H12         13.8360     0.6260     1.9890 ho         1 7EM       0.420000
     39 H13         12.4260    -1.5580     0.6000 ha         1 7EM       0.142500
     40 H14         10.1320    -1.5740    -0.2900 ha         1 7EM       0.142000
     41 H15          3.9690    -0.0000    -2.1480 ha         1 7EM       0.137500
     42 H16          1.5080    -0.0040    -2.1410 ha         1 7EM       0.143000
@<TRIPOS>BOND
     1    14    15 ar  
     2    14    12 ar  
     3    13    12 1   
     4    15     9 ar  
     5    12    11 ar  
     6    18    19 ar  
     7    18    17 ar  
     8    19    20 ar  
     9     9     8 1   
    10     9    10 ar  
    11    11    10 ar  
    12     8     7 1   
    13     8    16 2   
    14     7     6 2   
    15    25    26 ar  
    16    25     5 ar  
    17    17    16 1   
    18    17    23 ar  
    19    16    24 1   
    20    20    21 1   
    21    20    22 ar  
    22    26     2 ar  
    23     6    24 1   
    24     6     5 1   
    25     5     4 ar  
    26    23    22 ar  
    27     2     1 1   
    28     2     3 ar  
    29     4     3 ar  
    30     1    27 1   
    31     3    28 1   
    32     4    29 1   
    33     7    30 1   
    34    10    31 1   
    35    11    32 1   
    36    13    33 1   
    37    14    34 1   
    38    15    35 1   
    39    18    36 1   
    40    19    37 1   
    41    21    38 1   
    42    22    39 1   
    43    23    40 1   
    44    25    41 1   
    45    26    42 1   
@<TRIPOS>SUBSTRUCTURE
     1 7EM         1 TEMP              0 ****  ****    0 ROOT
