@<TRIPOS>MOLECULE
molecule
   32    34     1     0     0
SMALL
bcc


@<TRIPOS>ATOM
      1 O01          0.0000     0.0000     0.0000 oh         1 7EN      -0.518100
      2 C02          1.3580     0.0000     0.0000 ca         1 7EN       0.116100
      3 C03          2.0490     0.0000     1.2040 ca         1 7EN      -0.147000
      4 C04          3.4290    -0.0000     1.2110 ca         1 7EN       0.046400
      5 Cl05         4.2920    -0.0000     2.7180 cl         1 7EN      -0.107400
      6 C06          4.1310    -0.0000    -0.0010 ca         1 7EN      -0.002800
      7 C07          5.6010    -0.0020    -0.0010 ce         1 7EN      -0.040500
      8 C08          6.4300    -0.9100    -0.5750 ce         1 7EN      -0.001200
      9 C09          5.9160    -2.0840    -1.3150 ca         1 7EN      -0.056800
     10 C10          5.8830    -3.3380    -0.7030 ca         1 7EN       0.058400
     11 Cl11         6.4450    -3.5260     0.9280 cl         1 7EN      -0.093400
     12 C12          5.4010    -4.4290    -1.3980 ca         1 7EN      -0.149000
     13 C13          4.9500    -4.2800    -2.7020 ca         1 7EN       0.121100
     14 O14          4.4810    -5.3580    -3.3840 oh         1 7EN      -0.518100
     15 C15          4.9820    -3.0340    -3.3140 ca         1 7EN      -0.152000
     16 C16          5.4560    -1.9380    -2.6250 ca         1 7EN      -0.093000
     17 C17          7.8530    -0.6640    -0.4200 ce         1 7EN      -0.076000
     18 C18          8.2110     0.4150     0.2600 cf         1 7EN      -0.150300
     19 S19          6.6880     1.1890     0.7410 sx         1 7EN       0.395800
     20 O20          6.5980     2.2990    -0.1420 o          1 7EN      -0.485200
     21 C21          3.4280    -0.0010    -1.2110 ca         1 7EN      -0.086000
     22 C22          2.0510    -0.0050    -1.2040 ca         1 7EN      -0.149000
     23 H1          -0.3140     0.8880     0.0410 ho         1 7EN       0.424000
     24 H2           1.5040    -0.0020     2.1410 ha         1 7EN       0.156000
     25 H3           5.3740    -5.4030    -0.9240 ha         1 7EN       0.157000
     26 H4           3.5610    -5.4660    -3.2080 ho         1 7EN       0.425000
     27 H5           4.6270    -2.9210    -4.3310 ha         1 7EN       0.148000
     28 H6           5.4810    -0.9660    -3.1030 ha         1 7EN       0.147000
     29 H7           8.5610    -1.1460    -1.0830 ha         1 7EN       0.154000
     30 H8           9.0380     0.3670     0.9580 h4         1 7EN       0.181000
     31 H9           3.9660    -0.0030    -2.1520 ha         1 7EN       0.149000
     32 H10          1.5060    -0.0060    -2.1410 ha         1 7EN       0.147000
@<TRIPOS>BOND
     1    14    13 1
     2    13    15 ar
     3    13    12 ar
     4    15    16 ar
     5    12    10 ar
     6    16     9 ar
     7    10     9 ar
     8    10    11 1
     9     9     8 1
    10     8    17 1
    11     8     7 2
    12     1     2 1
    13     3     2 ar
    14     3     4 ar
    15     2    22 ar
    16     5     4 1
    17     4     6 ar
    18    22    21 ar
    19    17    18 2
    20     6    21 ar
    21     6     7 1
    22     7    19 1
    23    18    19 1
    24    19    20 2
    25     1    23 1
    26     3    24 1
    27    12    25 1
    28    14    26 1
    29    15    27 1
    30    16    28 1
    31    17    29 1
    32    18    30 1
    33    21    31 1
    34    22    32 1
@<TRIPOS>SUBSTRUCTURE
     1 7EN         1 TEMP              0 ****  ****    0 ROOT
