@<TRIPOS>MOLECULE
molecule
   32    34     1     0     0
SMALL
bcc


@<TRIPOS>ATOM
      1 O01          0.0000     0.0000     0.0000 oh         1 7EO      -0.517100
      2 C02          1.3580     0.0000     0.0000 ca         1 7EO       0.114100
      3 C03          2.0510     0.0000     1.2040 ca         1 7EO      -0.145000
      4 C04          3.4300     0.0010     1.2090 ca         1 7EO       0.038400
      5 Cl05         4.2940     0.0010     2.7140 cl         1 7EO      -0.108400
      6 C06          2.0500    -0.0050    -1.2040 ca         1 7EO      -0.146000
      7 C07          3.4280    -0.0120    -1.2120 ca         1 7EO      -0.086000
      8 C08          4.1310     0.0000    -0.0030 ca         1 7EO      -0.003800
      9 C09          5.6020    -0.0050    -0.0040 ce         1 7EO      -0.058000
     10 C10          6.4270    -0.9010    -0.5850 cf         1 7EO      -0.089500
     11 C11          7.7980    -0.7000    -0.4520 cf         1 7EO      -0.089500
     12 C12          8.2070     0.3780     0.2490 ce         1 7EO      -0.058000
     13 S13          6.6980     1.1720     0.7520 sx         1 7EO       0.440800
     14 O14          6.6230     2.2950    -0.1160 o          1 7EO      -0.484200
     15 C15          9.5870     0.8040     0.5270 ca         1 7EO      -0.003800
     16 C16         10.0140     0.9830     1.8490 ca         1 7EO       0.038400
     17 Cl17         8.9170     0.7030     3.1630 cl         1 7EO      -0.108400
     18 C18         11.3090     1.3820     2.1030 ca         1 7EO      -0.145000
     19 C19         12.1890     1.6060     1.0520 ca         1 7EO       0.114100
     20 O20         13.4640     2.0000     1.3070 oh         1 7EO      -0.517100
     21 C21         11.7690     1.4290    -0.2620 ca         1 7EO      -0.146000
     22 C22         10.4790     1.0260    -0.5280 ca         1 7EO      -0.086000
     23 H1          -0.3140     0.8880     0.0420 ho         1 7EO       0.424000
     24 H2           1.5070    -0.0040     2.1410 ha         1 7EO       0.156000
     25 H3           1.5040    -0.0150    -2.1400 ha         1 7EO       0.148000
     26 H4           3.9650    -0.0140    -2.1520 ha         1 7EO       0.151000
     27 H5           6.0480    -1.8710    -0.8840 ha         1 7EO       0.145000
     28 H6           8.4860    -1.5150    -0.6430 ha         1 7EO       0.145000
     29 H7          11.6410     1.5200     3.1250 ha         1 7EO       0.156000
     30 H8          13.4940     2.9400     1.3770 ho         1 7EO       0.424000
     31 H9          12.4600     1.6030    -1.0780 ha         1 7EO       0.148000
     32 H10         10.1540     0.8890    -1.5520 ha         1 7EO       0.151000
@<TRIPOS>BOND
     1    20    19 1
     2    21    19 ar
     3    21    22 ar
     4    19    18 ar
     5    22    15 ar
     6    18    16 ar
     7    15    16 ar
     8    15    12 1
     9    16    17 1
    10    12    11 2
    11    12    13 1
    12    11    10 1
    13    13    14 2
    14    13     9 1
    15    10     9 2
    16     9     8 1
    17     7     8 ar
    18     7     6 ar
    19     8     4 ar
    20     6     2 ar
    21     4     5 1
    22     4     3 ar
    23     2     3 ar
    24     2     1 1
    25     1    23 1
    26     3    24 1
    27     6    25 1
    28     7    26 1
    29    10    27 1
    30    11    28 1
    31    18    29 1
    32    20    30 1
    33    21    31 1
    34    22    32 1
@<TRIPOS>SUBSTRUCTURE
     1 7EO         1 TEMP              0 ****  ****    0 ROOT
