@<TRIPOS>MOLECULE
7EP
   48    45     1     0     0
SMALL
bcc


@<TRIPOS>ATOM
      1 C          -0.2220    1.0960    0.0070 c2        1 7EP      0.122000
      2 N           2.1630    0.2120   -1.8500 n4        1 7EP     -0.158000
      3 O          -0.7630    0.4290   -1.0760 os        1 7EP     -0.248000
      4 CA          0.4860    0.4130    0.8750 c1        1 7EP     -0.335000
      5 CB          1.2320   -0.2530    1.7200 c2        1 7EP     -0.045000
      6 CAA        -1.6500    1.2320   -1.8650 c3        1 7EP     -0.088000
      7 CAB         6.8010    2.7690   -3.4860 c3        1 7EP     -0.079000
      8 CAJ         3.5160    5.2090   -2.3830 c1        1 7EP     -0.271000
      9 CAK         2.3500    4.6080   -2.0810 c2        1 7EP     -0.352000
     10 CAL         4.6890    4.4540   -2.7950 c3        1 7EP     -0.142000
     11 NAN         0.7610   -1.0120    2.8160 n3        1 7EP     -0.255000
     12 SAQ         2.9280   -0.2180    1.3410 sh        1 7EP      0.064000
     13 CAR         2.6710   -1.0670    4.4130 c2        1 7EP      0.282000
     14 CAS         3.2140    0.9120   -2.6750 c2        1 7EP      0.331000
     15 CAT         2.1500    3.1860   -2.1340 c2        1 7EP      0.330000
     16 CAU         4.5180    2.9650   -2.8420 c2        1 7EP      0.199000
     17 CAV         3.3120    2.3500   -2.5380 c2        1 7EP     -0.363000
     18 CAY         1.2170   -0.6770    4.1550 c3        1 7EP      0.033000
     19 CAZ         1.0450    0.7520    4.6090 c2        1 7EP     -0.524000
     20 H          -0.3600    2.1940    0.0480 h4        1 7EP      0.196000
     21 HN          2.4260    0.2450   -0.8480 hn        1 7EP      0.260667
     22 HA          1.2540    0.7100   -1.9580 hn        1 7EP      0.260667
     23 HB          2.4110   -2.8460    3.7430 ho        1 7EP      0.243000
     24 HAA        -1.1180    2.1430   -2.2390 h1        1 7EP      0.102333
     25 HAAA       -2.5460    1.5110   -1.2610 h1        1 7EP      0.102333
     26 HAAB       -1.9350    0.5530   -2.7070 h1        1 7EP      0.102333
     27 HAB         7.4640    1.9030   -3.7360 h1        1 7EP      0.097000
     28 HABA        7.1970    3.3360   -2.6090 h1        1 7EP      0.097000
     29 HABB        6.6740    3.4430   -4.3670 h1        1 7EP      0.097000
     30 HAC        -0.5510    2.8580    2.6990 ha        1 7EP      0.005750
     31 HACA       -0.4920    2.2490    2.4030 ha        1 7EP      0.005750
     32 HACB       -0.4350    2.2880    4.9360 ha        1 7EP      0.060000
     33 HAD         3.2980   -1.4430    1.6950 hs        1 7EP      0.048000
     34 HADA        4.3730    1.8940    4.3910 ha        1 7EP      0.005750
     35 HADB        4.1010    1.7540    3.7850 ha        1 7EP      0.005750
     36 HAJ         4.9920    4.7990   -3.8250 hc        1 7EP      0.130000
     37 HAK         1.4740    5.1990   -1.7770 ha        1 7EP      0.137000
     38 HAL         5.5370    4.6880   -2.0900 hc        1 7EP      0.130000
     39 HNAN       -0.2490   -1.0180    2.8180 hn        1 7EP      0.216000
     40 HAY         0.5950   -1.3260    4.8530 h1        1 7EP      0.140000
     41 CAC        -0.2650    1.2760    4.5360 c1        1 7EP     -0.048000
     42 CAD         2.0430    1.4990    5.1200 c1        1 7EP      0.398000
     43 OAO         1.0480    2.6290   -1.8610 o         1 7EP     -0.517000
     44 OAF         3.4960   -0.3220    4.9540 o         1 7EP     -0.290000
     45 OAG         3.8640    0.1390   -3.3800 o         1 7EP     -0.272000
     46 OAH         3.1260   -2.3130    4.1250 oh        1 7EP     -0.268000
     47 H2          2.0690   -0.7590   -2.1420 hn        1 7EP      0.260667
     48 OAP         5.5600    2.1430   -3.1520 os        1 7EP     -0.204000
@<TRIPOS>BOND
     1    1    3 1   
     2    1    4 1   
     3    1   20 1   
     4    2   14 1   
     5    2   21 1   
     6    2   22 1   
     7    2   47 1   
     8    3    6 1   
     9    4    5 1   
    10    5   11 1   
    11    5   12 1   
    12    6   24 1   
    13    6   25 1   
    14    6   26 1   
    15    7   27 1   
    16    7   28 1   
    17    7   29 1   
    18    7   48 1   
    19    8    9 1   
    20    8   10 1   
    21    9   15 1   
    22    9   37 1   
    23   10   16 1   
    24   10   36 1   
    25   10   38 1   
    26   11   18 1   
    27   11   39 1   
    28   12   33 1   
    29   13   18 1   
    30   13   44 1   
    31   13   46 1   
    32   14   17 1   
    33   14   45 1   
    34   15   17 1   
    35   15   43 1   
    36   16   17 1   
    37   16   48 1   
    38   18   19 1   
    39   18   40 1   
    40   19   41 1   
    41   19   42 1   
    42   23   46 1   
    43   30   31 1   
    44   32   41 1   
    45   34   35 1   
@<TRIPOS>SUBSTRUCTURE
     1 7EP         1 TEMP              0 ****  ****    0 ROOT
