@<TRIPOS>MOLECULE
molecule
   32    34     1     0     0
SMALL
bcc


@<TRIPOS>ATOM
      1 O01          0.0000     0.0000     0.0000 oh         1 7EQ      -0.517100
      2 C02          1.3590     0.0000     0.0000 ca         1 7EQ       0.134600
      3 C03          2.0510     0.0000     1.2040 ca         1 7EQ      -0.193500
      4 C04          3.4310    -0.0000     1.2080 ca         1 7EQ       0.158400
      5 F05          4.1040    -0.0010     2.3790 f          1 7EQ      -0.132900
      6 C06          2.0500    -0.0060    -1.2060 ca         1 7EQ      -0.160000
      7 C07          3.4280    -0.0070    -1.2140 ca         1 7EQ      -0.082500
      8 C08          4.1320    -0.0010    -0.0050 ca         1 7EQ      -0.040800
      9 C09          5.6030    -0.0020    -0.0080 ce         1 7EQ      -0.060500
     10 C10          6.4330    -0.0080     1.0560 cf         1 7EQ      -0.095000
     11 C11          7.8030    -0.0070     0.8070 cf         1 7EQ      -0.095000
     12 C12          8.2040    -0.0000    -0.4820 ce         1 7EQ      -0.060500
     13 S13          6.6910    -0.0020    -1.4130 sx         1 7EQ       0.400800
     14 O14          6.6050    -1.3400    -1.8830 o          1 7EQ      -0.486200
     15 C15          9.5820     0.0020    -0.9980 ca         1 7EQ      -0.040800
     16 C16         10.6660    -0.0030    -0.1100 ca         1 7EQ       0.158400
     17 F17         10.4490    -0.0110     1.2230 f          1 7EQ      -0.132900
     18 C18         11.9560    -0.0020    -0.6010 ca         1 7EQ      -0.193500
     19 C19         12.1790     0.0070    -1.9710 ca         1 7EQ       0.134600
     20 O20         13.4510     0.0080    -2.4490 oh         1 7EQ      -0.517100
     21 C21         11.1070     0.0110    -2.8550 ca         1 7EQ      -0.160000
     22 C22          9.8150     0.0040    -2.3760 ca         1 7EQ      -0.082500
     23 H1          -0.3140     0.8880     0.0430 ho         1 7EQ       0.425000
     24 H2           1.5070    -0.0050     2.1410 ha         1 7EQ       0.158000
     25 H3           1.5040    -0.0110    -2.1420 ha         1 7EQ       0.148500
     26 H4           3.9650    -0.0090    -2.1540 ha         1 7EQ       0.137500
     27 H5           6.0610    -0.2940     2.0320 ha         1 7EQ       0.163500
     28 H6           8.4960     0.2700     1.5920 ha         1 7EQ       0.163500
     29 H7          12.7950    -0.0050     0.0840 ha         1 7EQ       0.158000
     30 H8          13.7590    -0.8800    -2.5240 ho         1 7EQ       0.425000
     31 H9          11.2880     0.0150    -3.9230 ha         1 7EQ       0.148500
     32 H10          8.9810     0.0070    -3.0670 ha         1 7EQ       0.137500
@<TRIPOS>BOND
     1     1     2 1
     2     2     6 ar
     3     2     3 ar
     4     6     7 ar
     5     3     4 ar
     6     7     8 ar
     7     4     8 ar
     8     4     5 1
     9     8     9 1
    10     9    13 1
    11     9    10 2
    12    14    13 2
    13    13    12 1
    14    10    11 1
    15    12    11 2
    16    12    15 1
    17    22    15 ar
    18    22    21 ar
    19    15    16 ar
    20    21    19 ar
    21    16    17 1
    22    16    18 ar
    23    19    18 ar
    24    19    20 1
    25     1    23 1
    26     3    24 1
    27     6    25 1
    28     7    26 1
    29    10    27 1
    30    11    28 1
    31    18    29 1
    32    20    30 1
    33    21    31 1
    34    22    32 1
@<TRIPOS>SUBSTRUCTURE
     1 7EQ         1 TEMP              0 ****  ****    0 ROOT
