@<TRIPOS>MOLECULE
molecule
   33    35     1     0     0
SMALL
bcc


@<TRIPOS>ATOM
      1 F01          0.0000     0.0000     0.0000 f          1 7ER      -0.126900
      2 C01          1.3510     0.0000     0.0000 ca         1 7ER       0.173400
      3 C02          2.0430     0.0000     1.1950 ca         1 7ER      -0.198500
      4 C03          3.4310    -0.0000     1.1960 ca         1 7ER       0.145600
      5 O01          4.1090    -0.0010     2.3730 oh         1 7ER      -0.516600
      6 C04          4.1290    -0.0010    -0.0050 ca         1 7ER      -0.167500
      7 C05          3.4450    -0.0010    -1.2030 ca         1 7ER      -0.067500
      8 C06          2.0510    -0.0060    -1.2080 ca         1 7ER      -0.120300
      9 C07          1.3130    -0.0120    -2.4940 ce         1 7ER       0.033800
     10 C08          0.7090    -1.1240    -2.9430 cf         1 7ER      -0.247600
     11 S01         -0.0090    -0.5940    -4.4850 sy         1 7ER       1.175800
     12 O02          0.6840    -1.2580    -5.5340 o          1 7ER      -0.594300
     13 O03         -1.4210    -0.6010    -4.3300 o          1 7ER      -0.594300
     14 C09          0.5320     1.1030    -4.4680 cf         1 7ER      -0.247600
     15 C10          1.2120     1.1910    -3.3140 ce         1 7ER       0.033800
     16 C11          1.8440     2.4640    -2.8920 ca         1 7ER      -0.120300
     17 C12          3.0150     2.9040    -3.5110 ca         1 7ER       0.173400
     18 F02          3.5760     2.1710    -4.4980 f          1 7ER      -0.126900
     19 C13          3.6010     4.0900    -3.1140 ca         1 7ER      -0.198500
     20 C14          3.0260     4.8430    -2.1000 ca         1 7ER       0.145600
     21 O04          3.6030     6.0100    -1.7100 oh         1 7ER      -0.516600
     22 C15          1.8600     4.4080    -1.4820 ca         1 7ER      -0.167500
     23 C16          1.2670     3.2280    -1.8780 ca         1 7ER      -0.067500
     24 H1           1.5020     0.0030     2.1340 ha         1 7ER       0.161500
     25 H2           4.2270    -0.8880     2.6670 ho         1 7ER       0.428500
     26 H3           5.2120     0.0010    -0.0010 ha         1 7ER       0.152000
     27 H4           3.9900    -0.0030    -2.1390 ha         1 7ER       0.150500
     28 H5           1.2170    -2.0790    -2.8820 h4         1 7ER       0.206000
     29 H9          -0.1520     1.8930    -4.7550 h4         1 7ER       0.206000
     30 H11          4.5100     4.4330    -3.5940 ha         1 7ER       0.161500
     31 H12          4.2520     5.8340    -1.0490 ho         1 7ER       0.428500
     32 H13          1.4130     5.0000    -0.6920 ha         1 7ER       0.152000
     33 H14          0.3580     2.8890    -1.3950 ha         1 7ER       0.150500
@<TRIPOS>BOND
     1     1     2 1   
     2     2     3 ar  
     3     2     8 ar  
     4     3     4 ar  
     5     4     5 1   
     6     4     6 ar  
     7     6     7 ar  
     8     7     8 ar  
     9     8     9 1   
    10     9    10 2   
    11     9    15 1   
    12    10    11 1   
    13    11    12 2   
    14    11    13 2   
    15    11    14 1   
    16    14    15 2   
    17    15    16 1   
    18    16    17 ar  
    19    16    23 ar  
    20    17    19 ar  
    21    19    20 ar  
    22    20    21 1   
    23    20    22 ar  
    24    22    23 ar  
    25    17    18 1   
    26     3    24 1   
    27     5    25 1   
    28     6    26 1   
    29     7    27 1   
    30    10    28 1   
    31    14    29 1   
    32    19    30 1   
    33    21    31 1   
    34    22    32 1   
    35    23    33 1   
@<TRIPOS>SUBSTRUCTURE
     1 7ER         1 TEMP              0 ****  ****    0 ROOT
