@<TRIPOS>MOLECULE
molecule
   31    33     1     0     0
SMALL
bcc


@<TRIPOS>ATOM
      1 O01          0.0000     0.0000     0.0000 oh         1 7ES      -0.518100
      2 C02          1.3590     0.0000     0.0000 ca         1 7ES       0.135100
      3 C03          2.0510     0.0000     1.2030 ca         1 7ES      -0.196000
      4 C04          3.4320    -0.0010     1.2070 ca         1 7ES       0.161900
      5 F05          4.1060    -0.0010     2.3780 f          1 7ES      -0.127900
      6 C06          2.0510    -0.0050    -1.2050 ca         1 7ES      -0.170000
      7 C07          3.4300    -0.0110    -1.2110 ca         1 7ES      -0.072000
      8 C08          4.1320    -0.0010    -0.0050 ca         1 7ES      -0.056000
      9 C09          5.6080    -0.0080    -0.0060 cc         1 7ES       0.024900
     10 C10          6.4030     0.8120    -0.7630 cd         1 7ES      -0.064000
     11 C11          5.8600     1.8290    -1.6930 ca         1 7ES      -0.068000
     12 C12          5.1560     2.9300    -1.1950 ca         1 7ES       0.163900
     13 F13          4.9700     3.0680     0.1360 f          1 7ES      -0.126900
     14 C14          4.6530     3.8750    -2.0670 ca         1 7ES      -0.199000
     15 C15          4.8450     3.7330    -3.4350 ca         1 7ES       0.131100
     16 O16          4.3470     4.6660    -4.2880 oh         1 7ES      -0.518100
     17 C17          5.5430     2.6410    -3.9310 ca         1 7ES      -0.170000
     18 C18          6.0540     1.6960    -3.0680 ca         1 7ES      -0.084000
     19 C19          7.7660     0.6050    -0.5790 cd         1 7ES      -0.139000
     20 C20          8.0800    -0.3500     0.2940 cc         1 7ES      -0.081100
     21 S21          6.6220    -1.0640     0.9670 ss         1 7ES      -0.099800
     22 H1          -0.3140     0.8880     0.0420 ho         1 7ES       0.424000
     23 H2           1.5080    -0.0060     2.1400 ha         1 7ES       0.158000
     24 H3           1.5060    -0.0130    -2.1410 ha         1 7ES       0.146000
     25 H4           3.9670    -0.0130    -2.1510 ha         1 7ES       0.149000
     26 H5           4.1070     4.7290    -1.6830 ha         1 7ES       0.156000
     27 H6           3.4580     4.4440    -4.5130 ho         1 7ES       0.423000
     28 H7           5.6920     2.5350    -4.9990 ha         1 7ES       0.146000
     29 H8           6.5990     0.8450    -3.4580 ha         1 7ES       0.146000
     30 H9           8.5180     1.1760    -1.1100 ha         1 7ES       0.153000
     31 H10          9.0900    -0.6400     0.5570 h4         1 7ES       0.173000
@<TRIPOS>BOND
     1    20    19 2
     2    20    21 1
     3    13    12 1
     4    19    10 1
     5    21     9 1
     6    10     9 2
     7    10    11 1
     8    12    14 ar
     9    12    11 ar
    10     9     8 1
    11    14    15 ar
    12    11    18 ar
    13     7     8 ar
    14     7     6 ar
    15     8     4 ar
    16     6     2 ar
    17     4     5 1
    18     4     3 ar
    19    15    16 1
    20    15    17 ar
    21    18    17 ar
    22     2     3 ar
    23     2     1 1
    24     1    22 1
    25     3    23 1
    26     6    24 1
    27     7    25 1
    28    14    26 1
    29    16    27 1
    30    17    28 1
    31    18    29 1
    32    19    30 1
    33    20    31 1
@<TRIPOS>SUBSTRUCTURE
     1 7ES         1 TEMP              0 ****  ****    0 ROOT
