@<TRIPOS>MOLECULE
7ET
   72    77     1     0     0
SMALL
bcc


@<TRIPOS>ATOM
      1 C01          0.0000     0.0000     0.0000 ca         1 7ET       0.127100
      2 C02          1.3890     0.0000     0.0000 ca         1 7ET      -0.137000
      3 C03          2.0790     0.0000     1.1930 ca         1 7ET      -0.068500
      4 C04          1.3800    -0.0010     2.4030 ca         1 7ET      -0.045800
      5 C05         -0.0180    -0.0020     2.3970 ca         1 7ET      -0.068500
      6 C06         -0.7000     0.0040     1.2000 ca         1 7ET      -0.137000
      7 C07          2.1130    -0.0020     3.6810 ce         1 7ET      -0.100400
      8 C08          2.9160     0.9790     4.1620 cf         1 7ET      -0.086400
      9 C09          3.4260     0.4800     5.5170 c3         1 7ET       0.270300
     10 C10          3.2340     2.2640     3.5130 ca         1 7ET      -0.086800
     11 C11          2.2270     3.2110     3.3030 ca         1 7ET      -0.041000
     12 C12          2.5300     4.4100     2.6960 ca         1 7ET      -0.179000
     13 C13          3.8320     4.6800     2.2930 ca         1 7ET       0.161100
     14 C14          4.8350     3.7410     2.5000 ca         1 7ET      -0.179000
     15 C15          4.5440     2.5410     3.1110 ca         1 7ET      -0.041000
     16 C16          2.1200    -1.1080     4.7400 c3         1 7ET       0.234300
     17 C17          2.1990     0.5710     6.4760 c3         1 7ET      -0.111900
     18 C18          1.2780    -0.5490     5.9280 c3         1 7ET      -0.017400
     19 O01          3.4840    -0.9650     5.2700 os         1 7ET      -0.381600
     20 O02          4.1240     5.8640     1.6950 os         1 7ET      -0.284900
     21 C19          5.4830     6.0750     1.3060 c3         1 7ET       0.193400
     22 C20          5.6180     7.4530     0.6540 c3         1 7ET       0.149800
     23 N01          5.3320     8.4960     1.6490 n3         1 7ET      -0.529600
     24 C21          5.2180     9.8140     1.0130 c3         1 7ET       0.150300
     25 C22          6.3470     8.5040     2.7110 c3         1 7ET       0.150300
     26 O03         -0.6770     0.0000    -1.1780 oh         1 7ET      -0.501100
     27 S01          2.6890     0.2300     8.1890 s6         1 7ET       1.204500
     28 O04          1.3820     0.2500     8.9690 os         1 7ET      -0.367800
     29 C23          0.8750     1.4960     9.1680 ca         1 7ET       0.167100
     30 C24          1.2530     2.2290    10.2830 ca         1 7ET      -0.098000
     31 C25          0.7370     3.4950    10.4830 ca         1 7ET      -0.049000
     32 C26         -0.1540     4.0320     9.5740 ca         1 7ET      -0.139000
     33 C27         -0.5340     3.3030     8.4600 ca         1 7ET       0.126900
     34 C28         -0.0140     2.0370     8.2520 ca         1 7ET      -0.195000
     35 O05          3.1540    -1.1070     8.3190 o          1 7ET      -0.583300
     36 O06          3.4310     1.3190     8.7210 o          1 7ET      -0.583300
     37 C29          4.7780    10.8470     2.0510 c3         1 7ET      -0.023400
     38 C30          5.9400     9.4980     3.8000 c3         1 7ET      -0.023400
     39 C31          5.8060    10.8950     3.1860 c3         1 7ET      -0.027400
     40 F01         -1.4050     3.8290     7.5720 f          1 7ET      -0.124900
     41 H1           1.9300    -0.0010    -0.9380 ha         1 7ET       0.115500
     42 H2           3.1620     0.0000     1.1920 ha         1 7ET       0.108500
     43 H3          -0.5650    -0.0000     3.3320 ha         1 7ET       0.108500
     44 H4          -1.7830     0.0040     1.1940 ha         1 7ET       0.115500
     45 H5           4.3440     0.9310     5.8750 h1         1 7ET       0.068700
     46 H6           1.2120     3.0020     3.6160 ha         1 7ET       0.106500
     47 H7           1.7510     5.1450     2.5330 ha         1 7ET       0.120000
     48 H8           5.8490     3.9560     2.1860 ha         1 7ET       0.120000
     49 H9           5.3270     1.8100     3.2720 ha         1 7ET       0.106500
     50 H10          1.8540    -2.0990     4.3930 h1         1 7ET       0.062700
     51 H11          1.7180     1.5380     6.3950 h1         1 7ET       0.093700
     52 H12          1.1120    -1.3140     6.6780 hc         1 7ET       0.035200
     53 H13          0.3380    -0.1390     5.5770 hc         1 7ET       0.035200
     54 H14          6.1210     6.0250     2.1800 h1         1 7ET       0.006200
     55 H15          5.7790     5.3110     0.5980 h1         1 7ET       0.006200
     56 H16          6.6270     7.5780     0.2810 h1         1 7ET       0.017700
     57 H17          4.9160     7.5350    -0.1670 h1         1 7ET       0.017700
     58 H19          4.4840     9.7680     0.2180 h1         1 7ET       0.008200
     59 H20          6.1800    10.1010     0.6060 h1         1 7ET       0.008200
     60 H21          6.4260     7.5130     3.1410 h1         1 7ET       0.008200
     61 H22          7.3020     8.7990     2.2930 h1         1 7ET       0.008200
     62 H23         -0.8350    -0.8880    -1.4510 ho         1 7ET       0.403000
     63 H24          1.9520     1.8100    10.9970 ha         1 7ET       0.130000
     64 H25          1.0320     4.0680    11.3540 ha         1 7ET       0.111000
     65 H26         -0.5590     5.0240     9.7340 ha         1 7ET       0.122000
     66 H27         -0.3100     1.4650     7.3800 ha         1 7ET       0.129000
     67 H28          4.7110    11.8220     1.5840 hc         1 7ET       0.019950
     68 H29          3.8120    10.5650     2.4520 hc         1 7ET       0.019950
     69 H30          6.6990     9.5170     4.5730 hc         1 7ET       0.019950
     70 H31          4.9900     9.1990     4.2250 hc         1 7ET       0.019950
     71 H32          5.4730    11.5920     3.9450 hc         1 7ET       0.012200
     72 H33          6.7640    11.2090     2.7910 hc         1 7ET       0.012200
@<TRIPOS>BOND
     1     1     2 ar  
     2     1     6 ar  
     3     1    26 1   
     4     2     3 ar  
     5     2    41 1   
     6     3     4 ar  
     7     3    42 1   
     8     4     5 ar  
     9     4     7 1   
    10     5     6 ar  
    11     5    43 1   
    12     6    44 1   
    13     7     8 2   
    14     7    16 1   
    15     8     9 1   
    16     8    10 1   
    17     9    17 1   
    18     9    19 1   
    19     9    45 1   
    20    10    11 ar  
    21    10    15 ar  
    22    11    12 ar  
    23    11    46 1   
    24    12    13 ar  
    25    12    47 1   
    26    13    14 ar  
    27    13    20 1   
    28    14    15 ar  
    29    14    48 1   
    30    15    49 1   
    31    16    18 1   
    32    16    19 1   
    33    16    50 1   
    34    17    18 1   
    35    17    27 1   
    36    17    51 1   
    37    18    52 1   
    38    18    53 1   
    39    20    21 1   
    40    21    22 1   
    41    21    54 1   
    42    21    55 1   
    43    22    23 1   
    44    22    56 1   
    45    22    57 1   
    46    23    24 1   
    47    23    25 1   
    48    24    37 1   
    49    24    58 1   
    50    24    59 1   
    51    25    38 1   
    52    25    60 1   
    53    25    61 1   
    54    26    62 1   
    55    27    28 1   
    56    27    35 2   
    57    27    36 2   
    58    28    29 1   
    59    29    30 ar  
    60    29    34 ar  
    61    30    31 ar  
    62    30    63 1   
    63    31    32 ar  
    64    31    64 1   
    65    32    33 ar  
    66    32    65 1   
    67    33    34 ar  
    68    33    40 1   
    69    34    66 1   
    70    37    39 1   
    71    37    67 1   
    72    37    68 1   
    73    38    39 1   
    74    38    69 1   
    75    38    70 1   
    76    39    71 1   
    77    39    72 1   
@<TRIPOS>SUBSTRUCTURE
     1 7ET         1 TEMP              0 ****  ****    0 ROOT
