@<TRIPOS>MOLECULE
molecule
   72    77     1     0     0
SMALL
bcc


@<TRIPOS>ATOM
      1 C01          0.0000     0.0000     0.0000 ca         1 7ET       0.109100
      2 C02          1.3890     0.0000     0.0000 ca         1 7ET      -0.152500
      3 C03          2.0790     0.0000     1.1930 ca         1 7ET      -0.098000
      4 C04          1.3800    -0.0010     2.4030 ca         1 7ET      -0.045800
      5 C05         -0.0180    -0.0020     2.3970 ca         1 7ET      -0.098000
      6 C06         -0.7000     0.0040     1.2000 ca         1 7ET      -0.152500
      7 C07          2.1130    -0.0020     3.6810 ce         1 7ET      -0.093400
      8 C08          2.9160     0.9790     4.1620 cf         1 7ET      -0.068400
      9 C09          3.4260     0.4800     5.5170 c3         1 7ET       0.194300
     10 C10          3.2340     2.2640     3.5130 ca         1 7ET      -0.092800
     11 C11          2.2270     3.2110     3.3030 ca         1 7ET      -0.070000
     12 C12          2.5300     4.4100     2.6960 ca         1 7ET      -0.193500
     13 C13          3.8320     4.6800     2.2930 ca         1 7ET       0.154100
     14 C14          4.8350     3.7410     2.5000 ca         1 7ET      -0.193500
     15 C15          4.5440     2.5410     3.1110 ca         1 7ET      -0.070000
     16 C16          2.1200    -1.1080     4.7400 c3         1 7ET       0.173300
     17 C17          2.1990     0.5710     6.4760 c3         1 7ET      -0.268900
     18 C18          1.2780    -0.5490     5.9280 c3         1 7ET      -0.073400
     19 O01          3.4840    -0.9650     5.2700 os         1 7ET      -0.382600
     20 O02          4.1240     5.8640     1.6950 os         1 7ET      -0.306900
     21 C19          5.4830     6.0750     1.3060 c3         1 7ET       0.138400
     22 C20          5.6180     7.4530     0.6540 c3         1 7ET       0.163800
     23 N01          5.3320     8.4960     1.6490 n3         1 7ET      -0.719600
     24 C21          5.2180     9.8140     1.0130 c3         1 7ET       0.163300
     25 C22          6.3470     8.5040     2.7110 c3         1 7ET       0.163300
     26 O03         -0.6770     0.0000    -1.1780 oh         1 7ET      -0.522100
     27 S01          2.6890     0.2300     8.1890 s6         1 7ET       1.454500
     28 O04          1.3820     0.2500     8.9690 os         1 7ET      -0.451800
     29 C23          0.8750     1.4960     9.1680 ca         1 7ET       0.117100
     30 C24          1.2530     2.2290    10.2830 ca         1 7ET      -0.107000
     31 C25          0.7370     3.4950    10.4830 ca         1 7ET      -0.088000
     32 C26         -0.1540     4.0320     9.5740 ca         1 7ET      -0.155000
     33 C27         -0.5340     3.3030     8.4600 ca         1 7ET       0.148900
     34 C28         -0.0140     2.0370     8.2520 ca         1 7ET      -0.193000
     35 O05          3.1540    -1.1070     8.3190 o          1 7ET      -0.612300
     36 O06          3.4310     1.3190     8.7210 o          1 7ET      -0.612300
     37 C29          4.7780    10.8470     2.0510 c3         1 7ET      -0.077400
     38 C30          5.9400     9.4980     3.8000 c3         1 7ET      -0.077400
     39 C31          5.8060    10.8950     3.1860 c3         1 7ET      -0.082400
     40 F01         -1.4050     3.8290     7.5720 f          1 7ET      -0.131900
     41 H1           1.9300    -0.0010    -0.9380 ha         1 7ET       0.142500
     42 H2           3.1620     0.0000     1.1920 ha         1 7ET       0.138000
     43 H3          -0.5650    -0.0000     3.3320 ha         1 7ET       0.138000
     44 H4          -1.7830     0.0040     1.1940 ha         1 7ET       0.142500
     45 H5           4.3440     0.9310     5.8750 h1         1 7ET       0.115700
     46 H6           1.2120     3.0020     3.6160 ha         1 7ET       0.137000
     47 H7           1.7510     5.1450     2.5330 ha         1 7ET       0.142500
     48 H8           5.8490     3.9560     2.1860 ha         1 7ET       0.142500
     49 H9           5.3270     1.8100     3.2720 ha         1 7ET       0.137000
     50 H10          1.8540    -2.0990     4.3930 h1         1 7ET       0.113700
     51 H11          1.7180     1.5380     6.3950 h1         1 7ET       0.115700
     52 H12          1.1120    -1.3140     6.6780 hc         1 7ET       0.066200
     53 H13          0.3380    -0.1390     5.5770 hc         1 7ET       0.066200
     54 H14          6.1210     6.0250     2.1800 h1         1 7ET       0.037700
     55 H15          5.7790     5.3110     0.5980 h1         1 7ET       0.037700
     56 H16          6.6270     7.5780     0.2810 h1         1 7ET       0.046700
     57 H17          4.9160     7.5350    -0.1670 h1         1 7ET       0.046700
     58 H19          4.4840     9.7680     0.2180 h1         1 7ET       0.031950
     59 H20          6.1800    10.1010     0.6060 h1         1 7ET       0.031950
     60 H21          6.4260     7.5130     3.1410 h1         1 7ET       0.031950
     61 H22          7.3020     8.7990     2.2930 h1         1 7ET       0.031950
     62 H23         -0.8350    -0.8880    -1.4510 ho         1 7ET       0.420000
     63 H24          1.9520     1.8100    10.9970 ha         1 7ET       0.162000
     64 H25          1.0320     4.0680    11.3540 ha         1 7ET       0.150000
     65 H26         -0.5590     5.0240     9.7340 ha         1 7ET       0.153000
     66 H27         -0.3100     1.4650     7.3800 ha         1 7ET       0.155000
     67 H28          4.7110    11.8220     1.5840 hc         1 7ET       0.049950
     68 H29          3.8120    10.5650     2.4520 hc         1 7ET       0.049950
     69 H30          6.6990     9.5170     4.5730 hc         1 7ET       0.049950
     70 H31          4.9900     9.1990     4.2250 hc         1 7ET       0.049950
     71 H32          5.4730    11.5920     3.9450 hc         1 7ET       0.040200
     72 H33          6.7640    11.2090     2.7910 hc         1 7ET       0.040200
@<TRIPOS>BOND
     1    36    27 2
     2    31    30 ar
     3    31    32 ar
     4    30    29 ar
     5    27    35 2
     6    27    28 1
     7    27    17 1
     8    32    33 ar
     9    29    28 1
    10    29    34 ar
    11    18    17 1
    12    18    16 1
    13    17     9 1
    14    33    34 ar
    15    33    40 1
    16    16    19 1
    17    16     7 1
    18     9    19 1
    19     9     8 1
    20     5     6 ar
    21     5     4 ar
    22     7     8 2
    23     7     4 1
    24     8    10 1
    25     6     1 ar
    26     4     3 ar
    27    15    10 ar
    28    15    14 ar
    29    10    11 ar
    30    14    13 ar
    31     1    26 1
    32     1     2 ar
    33    11    12 ar
    34     3     2 ar
    35    13    12 ar
    36    13    20 1
    37    38    25 1
    38    38    39 1
    39    21    20 1
    40    21    22 1
    41    25    23 1
    42    22    23 1
    43    39    37 1
    44    23    24 1
    45    37    24 1
    46     2    41 1
    47     3    42 1
    48     5    43 1
    49     6    44 1
    50     9    45 1
    51    11    46 1
    52    12    47 1
    53    14    48 1
    54    15    49 1
    55    16    50 1
    56    17    51 1
    57    18    52 1
    58    18    53 1
    59    21    54 1
    60    21    55 1
    61    22    56 1
    62    22    57 1
    63    24    58 1
    64    24    59 1
    65    25    60 1
    66    25    61 1
    67    26    62 1
    68    30    63 1
    69    31    64 1
    70    32    65 1
    71    34    66 1
    72    37    67 1
    73    37    68 1
    74    38    69 1
    75    38    70 1
    76    39    71 1
    77    39    72 1
@<TRIPOS>SUBSTRUCTURE
     1 7ET         1 TEMP              0 ****  ****    0 ROOT
