@<TRIPOS>MOLECULE
molecule
   65    69     1     0     0
SMALL
bcc


@<TRIPOS>ATOM
      1 C01          0.0000     0.0000     0.0000 ce         1 7EV      -0.050400
      2 C02          1.5310     0.0000     0.0000 c3         1 7EV       0.168300
      3 C03          1.9380     0.0000     1.5070 c3         1 7EV      -0.073400
      4 C04          1.5120     1.4250     1.9540 c3         1 7EV      -0.265900
      5 C05         -0.3730     1.2510     0.3690 cf         1 7EV      -0.106400
      6 C06          0.9270     2.0160     0.6340 c3         1 7EV       0.196300
      7 O01          1.8040     1.3900    -0.3840 os         1 7EV      -0.384600
      8 C07         -0.8880    -1.1260    -0.3390 ca         1 7EV      -0.110800
      9 C08         -1.7470     1.7610     0.5140 ca         1 7EV      -0.041800
     10 C09         -1.7170    -1.0530    -1.4610 ca         1 7EV      -0.072000
     11 C10         -2.5450    -2.1080    -1.7740 ca         1 7EV      -0.196000
     12 C11         -2.5560    -3.2450    -0.9760 ca         1 7EV       0.169100
     13 C12         -1.7330    -3.3230     0.1410 ca         1 7EV      -0.196000
     14 C13         -0.8980    -2.2750     0.4580 ca         1 7EV      -0.072000
     15 C14         -2.5900     1.2350     1.4980 ca         1 7EV      -0.097500
     16 C15         -3.8760     1.7150     1.6290 ca         1 7EV      -0.152500
     17 C16         -4.3340     2.7200     0.7860 ca         1 7EV       0.107100
     18 C17         -3.5000     3.2450    -0.1930 ca         1 7EV      -0.152500
     19 C18         -2.2110     2.7760    -0.3280 ca         1 7EV      -0.097500
     20 O02         -3.3740    -4.2840    -1.2880 os         1 7EV      -0.327900
     21 O03         -5.6010     3.1900     0.9190 oh         1 7EV      -0.521100
     22 S01          2.9450     2.3840     2.5160 s6         1 7EV       1.454500
     23 O07          3.9670     2.3780     1.5290 o          1 7EV      -0.616300
     24 O08          2.5260     3.5950     3.1290 o          1 7EV      -0.616300
     25 O06          3.5250     1.5650     3.6610 os         1 7EV      -0.452800
     26 H2           2.0030    -0.7550    -0.6170 h1         1 7EV       0.116700
     27 H3           3.0070    -0.1360     1.6180 hc         1 7EV       0.065700
     28 H5           0.7510     1.3760     2.7250 h1         1 7EV       0.114700
     29 H7           0.8580     3.0970     0.5870 h1         1 7EV       0.108700
     30 H10         -1.7440    -4.2130     0.7590 ha         1 7EV       0.147500
     31 H11         -0.2560    -2.3370     1.3290 ha         1 7EV       0.129500
     32 H12         -2.2340     0.4520     2.1560 ha         1 7EV       0.138500
     33 H13         -4.5290     1.3080     2.3910 ha         1 7EV       0.141000
     34 H14         -3.8610     4.0300    -0.8460 ha         1 7EV       0.141000
     35 H15         -1.5610     3.1860    -1.0920 ha         1 7EV       0.138500
     36 H17         -5.6060     3.9120     1.5260 ho         1 7EV       0.416000
     37 C1           2.8010     1.6310     4.8090 ca         1 7EV       0.103100
     38 C2           1.7960     0.7050     5.0490 ca         1 7EV      -0.119500
     39 C3           1.0600     0.7730     6.2170 ca         1 7EV      -0.090000
     40 C4           1.3260     1.7630     7.1470 ca         1 7EV      -0.012900
     41 C5           3.0690     2.6190     5.7450 ca         1 7EV      -0.119500
     42 C6           2.3280     2.6880     6.9080 ca         1 7EV      -0.090000
     43 Br1          0.3190     1.8540     8.7440 br         1 7EV      -0.081100
     44 C7          -3.3350    -5.4220    -0.4250 c3         1 7EV       0.129400
     45 C8          -4.3160    -6.4810    -0.9340 c3         1 7EV      -0.087400
     46 C9          -4.2740    -7.7010    -0.0100 c3         1 7EV      -0.062400
     47 C19         -5.2540    -8.7590    -0.5180 c3         1 7EV      -0.181400
     48 C20         -5.2130    -9.9590     0.3920 c          1 7EV       0.891600
     49 O1          -4.4760    -9.9680     1.3480 o          1 7EV      -0.854800
     50 O2          -5.9970   -11.0210     0.1390 o          1 7EV      -0.854800
     51 H4           1.3910    -0.7570     2.0550 hc         1 7EV       0.065700
     52 H8          -1.7090    -0.1660    -2.0840 ha         1 7EV       0.129500
     53 H9          -3.1890    -2.0520    -2.6440 ha         1 7EV       0.147500
     54 H16          1.5870    -0.0700     4.3220 ha         1 7EV       0.156000
     55 H18          0.2750     0.0500     6.4050 ha         1 7EV       0.155000
     56 H19          3.8540     3.3430     5.5590 ha         1 7EV       0.156000
     57 H20          2.5360     3.4610     7.6380 ha         1 7EV       0.155000
     58 H21         -3.6140    -5.1250     0.5780 h1         1 7EV       0.035700
     59 H22         -2.3330    -5.8340    -0.4150 h1         1 7EV       0.035700
     60 H23         -4.0370    -6.7790    -1.9380 hc         1 7EV       0.045700
     61 H24         -5.3180    -6.0700    -0.9450 hc         1 7EV       0.045700
     62 H25         -4.5530    -7.4030     0.9940 hc         1 7EV       0.046700
     63 H26         -3.2720    -8.1120     0.0010 hc         1 7EV       0.046700
     64 H27         -4.9760    -9.0560    -1.5220 hc         1 7EV       0.030700
     65 H28         -6.2570    -8.3470    -0.5290 hc         1 7EV       0.030700
@<TRIPOS>BOND
     1    24    22 2
     2    23    22 2
     3    22    25 1
     4    22     4 1
     5     4     3 1
     6     4     6 1
     7     3     2 1
     8     6     7 1
     9     6     5 1
    10     7     2 1
    11     2     1 1
    12    21    17 1
    13    18    17 ar
    14    18    19 ar
    15    17    16 ar
    16    19     9 ar
    17    16    15 ar
    18     9    15 ar
    19     9     5 1
    20     5     1 2
    21     1     8 1
    22     8    10 ar
    23     8    14 ar
    24    10    11 ar
    25    14    13 ar
    26    11    12 ar
    27    13    12 ar
    28    12    20 1
    29     2    26 1
    30     3    27 1
    31     4    28 1
    32     6    29 1
    33    13    30 1
    34    14    31 1
    35    15    32 1
    36    16    33 1
    37    18    34 1
    38    19    35 1
    39    21    36 1
    40    25    37 1
    41    37    38 ar
    42    38    39 ar
    43    39    40 ar
    44    37    41 ar
    45    41    42 ar
    46    42    40 ar
    47    40    43 1
    48    20    44 1
    49    44    45 1
    50    45    46 1
    51    46    47 1
    52    47    48 1
    53    48    49 1
    54    48    50 1
    55     3    51 1
    56    10    52 1
    57    11    53 1
    58    38    54 1
    59    39    55 1
    60    41    56 1
    61    42    57 1
    62    44    58 1
    63    44    59 1
    64    45    60 1
    65    45    61 1
    66    46    62 1
    67    46    63 1
    68    47    64 1
    69    47    65 1
@<TRIPOS>SUBSTRUCTURE
     1 7EV         1 TEMP              0 ****  ****    0 ROOT
