@<TRIPOS>MOLECULE
molecule
   17    18     1     0     0
SMALL
bcc


@<TRIPOS>ATOM
      1 C1           0.0000     0.0000     0.0000 cx         1 7EX       0.050100
      2 C2           1.5200     0.0000     0.0000 c3         1 7EX      -0.062900
      3 C3           2.0570     0.0000     1.4310 c3         1 7EX      -0.082400
      4 C4           1.4490     1.1920     2.1810 c3         1 7EX      -0.082400
      5 C5          -0.0120     0.8750     2.4980 c3         1 7EX      -0.062900
      6 C6          -0.7580     0.5010     1.2190 cx         1 7EX       0.050100
      7 O           -0.7130    -0.8720     0.8660 op         1 7EX      -0.385600
      8 H1          -0.4980     0.1950    -0.9420 h1         1 7EX       0.083700
      9 H2           1.8760    -0.8850    -0.5130 hc         1 7EX       0.054450
     10 H3           1.8760     0.8850    -0.5140 hc         1 7EX       0.054450
     11 H4           1.7740    -0.9220     1.9250 hc         1 7EX       0.047950
     12 H5           3.1360     0.0940     1.4140 hc         1 7EX       0.047950
     13 H6           1.9930     1.3550     3.1040 hc         1 7EX       0.047950
     14 H7           1.5020     2.0770     1.5590 hc         1 7EX       0.047950
     15 H8          -0.0550     0.0440     3.1920 hc         1 7EX       0.054450
     16 H9          -0.4780     1.7460     2.9420 hc         1 7EX       0.054450
     17 H10         -1.7140     0.9710     1.0210 h1         1 7EX       0.083700
@<TRIPOS>BOND
     1     6     5 1
     2     6     7 1
     3     6     1 1
     4     5     4 1
     5     7     1 1
     6     4     3 1
     7     1     2 1
     8     3     2 1
     9     1     8 1
    10     2     9 1
    11     2    10 1
    12     3    11 1
    13     3    12 1
    14     4    13 1
    15     4    14 1
    16     5    15 1
    17     5    16 1
    18     6    17 1
@<TRIPOS>SUBSTRUCTURE
     1 7EX         1 TEMP              0 ****  ****    0 ROOT
