@<TRIPOS>MOLECULE
molecule
   35    37     1     0     0
SMALL
bcc


@<TRIPOS>ATOM
      1 C4           0.0000     0.0000     0.0000 ca         1 7EY       0.528600
      2 C5           1.3940     0.0000     0.0000 ca         1 7EY      -0.324400
      3 C6           2.0520     0.0000     1.2570 ca         1 7EY       0.621600
      4 N1           1.3220     0.0000     2.3630 nb         1 7EY      -0.743000
      5 N3          -0.6510     0.0010     1.1720 nb         1 7EY      -0.749000
      6 OAB          4.7530     0.0010     5.6940 o          1 7EY      -0.843800
      7 CAP          5.7160    -0.0000     4.9650 c          1 7EY       0.895600
      8 OAC          6.9530    -0.0000     5.4870 o          1 7EY      -0.843800
      9 CAK          5.5300    -0.0010     3.4690 c3         1 7EY      -0.178400
     10 CAJ          4.0350    -0.0000     3.1410 c3         1 7EY       0.018700
     11 SAN          3.8120    -0.0000     1.3450 ss         1 7EY      -0.315400
     12 C2           0.0030     0.0010     2.3100 ca         1 7EY       0.704900
     13 SAO         -0.5970    -0.0090    -1.6520 ss         1 7EY      -0.183900
     14 CAI          1.0250    -0.0120    -2.3160 cc         1 7EY      -0.108400
     15 CAS          1.9420    -0.0010    -1.3510 cd         1 7EY       0.013600
     16 CAR          3.3990    -0.0010    -1.6270 ca         1 7EY      -0.055800
     17 CAG          3.9410    -0.9260    -2.5180 ca         1 7EY      -0.095500
     18 CAE          5.2980    -0.9220    -2.7710 ca         1 7EY      -0.132500
     19 CAQ          6.1190    -0.0020    -2.1420 ca         1 7EY      -0.076300
     20 CAA          7.6000    -0.0030    -2.4230 c3         1 7EY      -0.047800
     21 CAF          5.5860     0.9180    -1.2580 ca         1 7EY      -0.132500
     22 CAH          4.2300     0.9260    -1.0010 ca         1 7EY      -0.095500
     23 H2           5.9910    -0.8860     3.0480 hc         1 7EY       0.038200
     24 H3           5.9920     0.8830     3.0480 hc         1 7EY       0.038200
     25 H4           3.5730    -0.8840     3.5630 h1         1 7EY       0.084700
     26 H5           3.5740     0.8850     3.5630 h1         1 7EY       0.084700
     27 H6          -0.5590     0.0010     3.2360 h5         1 7EY       0.060100
     28 H7           1.2520    -0.0220    -3.3750 h4         1 7EY       0.172000
     29 H9           3.3000    -1.6470    -3.0110 ha         1 7EY       0.140500
     30 H10          5.7220    -1.6400    -3.4630 ha         1 7EY       0.130500
     31 H11          8.0380     0.9160    -2.0540 hc         1 7EY       0.041033
     32 H12          8.0610    -0.8480    -1.9260 hc         1 7EY       0.041033
     33 H13          7.7650    -0.0790    -3.4910 hc         1 7EY       0.041033
     34 H14          6.2330     1.6370    -0.7700 ha         1 7EY       0.130500
     35 H15          3.8130     1.6470    -0.3080 ha         1 7EY       0.140500
@<TRIPOS>BOND
     1     1     2 ar  
     2     1     5 ar  
     3     1    13 1   
     4     2     3 ar  
     5     2    15 1   
     6     3     4 ar  
     7     3    11 1   
     8     4    12 ar  
     9     5    12 ar  
    10     6     7 1   
    11     7     8 1   
    12     7     9 1   
    13     9    10 1   
    14    10    11 1   
    15    13    14 1   
    16    14    15 2   
    17    15    16 1   
    18    16    17 ar  
    19    16    22 ar  
    20    17    18 ar  
    21    18    19 ar  
    22    19    20 1   
    23    19    21 ar  
    24    21    22 ar  
    25     9    23 1   
    26     9    24 1   
    27    10    25 1   
    28    10    26 1   
    29    12    27 1   
    30    14    28 1   
    31    17    29 1   
    32    18    30 1   
    33    20    31 1   
    34    20    32 1   
    35    20    33 1   
    36    21    34 1   
    37    22    35 1   
@<TRIPOS>SUBSTRUCTURE
     1 7EY         1 TEMP              0 ****  ****    0 ROOT
