@<TRIPOS>MOLECULE
molecule
   59    58     1     0     0
SMALL
bcc


@<TRIPOS>ATOM
      1 C1           0.0000     0.0000     0.0000 c3         1 7EZ      -0.044100
      2 C2           1.5300     0.0000     0.0000 c3         1 7EZ      -0.200200
      3 C3           2.0320     0.0000     1.4210 c2         1 7EZ      -0.272200
      4 C4           2.9360    -0.8720     1.7960 c2         1 7EZ      -0.445200
      5 C5           3.5770    -1.7780     0.7770 c3         1 7EZ      -0.100200
      6 C6           5.0990    -1.6540     0.8700 c3         1 7EZ       0.198100
      7 C7           5.7470    -2.4780    -0.2450 c3         1 7EZ       0.120100
      8 C8           7.2680    -2.4560    -0.0790 c3         1 7EZ      -0.042200
      9 C9           7.9120    -3.1620    -1.2430 c2         1 7EZ      -0.234200
     10 C10          8.8840    -2.5850    -1.9030 c2         1 7EZ      -0.149200
     11 C11          9.4560    -1.2790    -1.4150 c3         1 7EZ       0.088000
     12 O4          16.2270     2.0140    -7.7690 o          1 7EZ      -0.839300
     13 C22         15.4550     2.0920    -8.6950 c          1 7EZ       0.890600
     14 O3          15.8310     1.6870    -9.9180 o          1 7EZ      -0.839300
     15 C21         14.0700     2.6440    -8.4760 c3         1 7EZ      -0.225400
     16 C20         13.9000     3.0280    -7.0050 c3         1 7EZ       0.057800
     17 C19         12.5150     3.5800    -6.7870 c2         1 7EZ      -0.274200
     18 C18         11.7530     3.0830    -5.8440 c2         1 7EZ      -0.160200
     19 C17         12.3160     2.0790    -4.8710 c3         1 7EZ       0.237000
     20 C16         12.0460     2.5400    -3.4620 c2         1 7EZ      -0.200200
     21 C15         11.4490     1.7400    -2.6130 c2         1 7EZ      -0.261200
     22 C14         11.1820     0.3050    -2.9920 c3         1 7EZ       0.098000
     23 C13         11.7450    -0.6070    -1.9320 c2         1 7EZ      -0.256200
     24 C12         10.9500    -1.4080    -1.2680 c2         1 7EZ      -0.261200
     25 O2           5.2800    -3.8260    -0.1740 oh         1 7EZ      -0.577800
     26 H1          -0.3610    -0.8900     0.5010 hc         1 7EZ       0.043367
     27 H2          -0.3610     0.0110    -1.0210 hc         1 7EZ       0.043367
     28 H3          -0.3610     0.8790     0.5200 hc         1 7EZ       0.043367
     29 H4           1.8910     0.8850    -0.5110 hc         1 7EZ       0.038200
     30 H5           1.8910    -0.8840    -0.5110 hc         1 7EZ       0.038200
     31 H6           2.5730     0.5040     0.6290 ha         1 7EZ       0.341000
     32 H7           2.4580    -1.7890     1.4740 ha         1 7EZ       0.335000
     33 H8           3.2510    -1.4930    -0.2160 hc         1 7EZ       0.046700
     34 H9           3.2860    -2.8040     0.9710 hc         1 7EZ       0.046700
     35 H10          5.3840    -0.6140     0.7620 h1         1 7EZ       0.041700
     36 H12          5.4820    -2.0550    -1.2070 h1         1 7EZ       0.030700
     37 H13          7.6120    -1.4290    -0.0440 hc         1 7EZ       0.083200
     38 H14          7.5370    -2.9580     0.8430 hc         1 7EZ       0.083200
     39 H15          7.2660    -2.2930    -1.2770 ha         1 7EZ       0.132000
     40 H16          8.4140    -1.6370    -2.1390 ha         1 7EZ       0.080000
     41 H17          9.2290    -0.4960    -2.1280 hc         1 7EZ       0.050700
     42 H18          9.0190    -1.0300    -0.4550 hc         1 7EZ       0.050700
     43 H20         13.3360     1.8920    -8.7400 hc         1 7EZ       0.047700
     44 H21         13.9280     3.5200    -9.0970 hc         1 7EZ       0.047700
     45 H22         14.6340     3.7790    -6.7410 hc         1 7EZ       0.076200
     46 H23         14.0410     2.1510    -6.3850 hc         1 7EZ       0.076200
     47 H24         12.7910     2.6020    -7.1640 ha         1 7EZ       0.160000
     48 H25         11.7980     2.0290    -6.0920 ha         1 7EZ      -0.029000
     49 H26         13.3850     1.9890    -5.0230 hc         1 7EZ       0.065700
     50 H27         11.8460     1.1160    -5.0320 hc         1 7EZ       0.065700
     51 H28         12.9240     1.9510    -3.6990 ha         1 7EZ       0.039000
     52 H29         10.5720     1.4670    -3.1880 ha         1 7EZ       0.081000
     53 H30         11.6530     0.0890    -3.9420 hc         1 7EZ       0.045700
     54 H31         10.1130     0.1470    -3.0740 hc         1 7EZ       0.045700
     55 H32         11.3320     0.3570    -1.6620 ha         1 7EZ       0.117000
     56 H33         10.4350    -1.9020    -2.0830 ha         1 7EZ       0.073000
     57 H34          5.0920    -4.1400    -1.0430 ho         1 7EZ       0.406000
     58 O1           5.5410    -2.1400     2.1390 oh         1 7EZ      -0.572800
     59 H11          5.7230    -1.4110     2.7080 ho         1 7EZ       0.418000
@<TRIPOS>BOND
     1    12    13 1   
     2    13    15 1   
     3    13    14 1   
     4    15    16 1   
     5    16    17 1   
     6    17    18 2   
     7    18    19 1   
     8    20    19 1   
     9    20    21 2   
    10    21    22 1   
    11    22    23 1   
    12    23    24 2   
    13    24    11 1   
    14    10    11 1   
    15    10     9 2   
    16     9     8 1   
    17     8     7 1   
    18     7     6 1   
    19     7    25 1   
    20     6     5 1   
    21     5     4 1   
    22     4     3 2   
    23     3     2 1   
    24     2     1 1   
    25     1    26 1   
    26     1    27 1   
    27     1    28 1   
    28     2    29 1   
    29     2    30 1   
    30     3    31 1   
    31     4    32 1   
    32     5    33 1   
    33     5    34 1   
    34     6    35 1   
    35     7    36 1   
    36     8    37 1   
    37     8    38 1   
    38     9    39 1   
    39    10    40 1   
    40    11    41 1   
    41    11    42 1   
    42    15    43 1   
    43    15    44 1   
    44    16    45 1   
    45    16    46 1   
    46    17    47 1   
    47    18    48 1   
    48    19    49 1   
    49    19    50 1   
    50    20    51 1   
    51    21    52 1   
    52    22    53 1   
    53    22    54 1   
    54    23    55 1   
    55    24    56 1   
    56    25    57 1   
    57     6    58 1   
    58    58    59 1   
@<TRIPOS>SUBSTRUCTURE
     1 7EZ         1 TEMP              0 ****  ****    0 ROOT
