@<TRIPOS>MOLECULE
molecule
   28    27     1     0     0
SMALL
bcc


@<TRIPOS>ATOM
      1 C1           0.0000     0.0000     0.0000 c3         1 7F2      -0.092100
      2 C2           1.5300     0.0000     0.0000 c3         1 7F2      -0.084400
      3 CE           2.0390     0.0000     1.4430 c3         1 7F2      -0.081400
      4 CD           3.5700    -0.0010     1.4440 c3         1 7F2      -0.082400
      5 CG           4.0790     0.0000     2.8870 c3         1 7F2      -0.079400
      6 CB           5.6090     0.0000     2.8870 c3         1 7F2      -0.082400
      7 CA           6.1180     0.0000     4.3300 c3         1 7F2       0.151100
      8 C            7.6430     0.1260     4.3320 c3         1 7F2       0.115400
      9 O            8.1090     0.2430     5.6780 oh         1 7F2      -0.614800
     10 O1           5.7400    -1.2200     4.9690 oh         1 7F2      -0.601800
     11 H1          -0.3610    -0.8850     0.5110 hc         1 7F2       0.032700
     12 H2          -0.3610     0.8840     0.5110 hc         1 7F2       0.032700
     13 H3          -0.3610     0.0000    -1.0210 hc         1 7F2       0.032700
     14 H4           1.8910    -0.8850    -0.5110 hc         1 7F2       0.039700
     15 H5           1.8910     0.8850    -0.5110 hc         1 7F2       0.039700
     16 H6           1.6780     0.8850     1.9530 hc         1 7F2       0.042200
     17 H7           1.6770    -0.8840     1.9530 hc         1 7F2       0.042200
     18 H8           3.9310    -0.8860     0.9340 hc         1 7F2       0.040700
     19 H9           3.9320     0.8830     0.9330 hc         1 7F2       0.040700
     20 H10          3.7170     0.8850     3.3970 hc         1 7F2       0.047200
     21 H11          3.7170    -0.8840     3.3980 hc         1 7F2       0.047200
     22 H12          5.9700     0.8850     2.3760 hc         1 7F2       0.050700
     23 H13          5.9700    -0.8840     2.3760 hc         1 7F2       0.050700
     24 H14          5.6860     0.8370     4.8650 h1         1 7F2       0.040700
     25 H15          7.9340     1.0070     3.7720 h1         1 7F2       0.029200
     26 H16          8.0790    -0.7530     3.8740 h1         1 7F2       0.029200
     27 H17          9.0360     0.4170     5.6760 ho         1 7F2       0.404000
     28 H18          5.5000    -1.0450     5.8640 ho         1 7F2       0.409000
@<TRIPOS>BOND
     1     9     8 1
     2     6     7 1
     3     6     5 1
     4     7     8 1
     5     4     5 1
     6     4     3 1
     7     3     2 1
     8     2     1 1
     9     7    10 1
    10     1    11 1
    11     1    12 1
    12     1    13 1
    13     2    14 1
    14     2    15 1
    15     3    16 1
    16     3    17 1
    17     4    18 1
    18     4    19 1
    19     5    20 1
    20     5    21 1
    21     6    22 1
    22     6    23 1
    23     7    24 1
    24     8    25 1
    25     8    26 1
    26     9    27 1
    27    10    28 1
@<TRIPOS>SUBSTRUCTURE
     1 7F2         1 TEMP              0 ****  ****    0 ROOT
