@<TRIPOS>MOLECULE
7F3
   49    53     1     0     0
SMALL
bcc


@<TRIPOS>ATOM
      1 C1           0.0000     0.0000     0.0000 ca         1 7F3      -0.001000
      2 C2           1.3860     0.0000     0.0000 ca         1 7F3      -0.087000
      3 C3           2.0710     0.0000     1.1900 ca         1 7F3      -0.047300
      4 C4           1.3810    -0.0020     2.4050 ca         1 7F3      -0.266900
      5 C5          -0.0150    -0.0020     2.3980 ca         1 7F3       0.153900
      6 C6          -0.6950    -0.0010     1.1940 ca         1 7F3      -0.102000
      7 F7          -0.6980    -0.0030     3.5640 f          1 7F3      -0.123900
      8 C8           2.3790    -0.0020     3.4930 ce         1 7F3       0.216800
      9 N9           3.5860    -0.0010     3.0200 n2         1 7F3      -0.362900
     10 C10          3.5360    -0.0000     1.5520 c3         1 7F3       0.288100
     11 C11          4.2060     1.2360     1.0110 ca         1 7F3      -0.134300
     12 C12          3.7330     1.8230    -0.1490 ca         1 7F3      -0.085000
     13 C13          4.3420     2.9590    -0.6530 ca         1 7F3      -0.110000
     14 C14          5.4260     3.5120     0.0020 ca         1 7F3       0.148900
     15 C15          5.9050     2.9220     1.1720 cp         1 7F3      -0.030000
     16 C16          5.2840     1.7820     1.6760 ca         1 7F3      -0.058000
     17 C17          7.0690     3.5110     1.8800 cp         1 7F3      -0.310600
     18 C18          8.2440     3.8250     1.1920 ca         1 7F3       0.463200
     19 N19          9.2570     4.3490     1.8610 nb         1 7F3      -0.615500
     20 C20          9.1690     4.5740     3.1580 ca         1 7F3       0.650900
     21 N21          8.0790     4.2920     3.8440 nb         1 7F3      -0.615500
     22 C22          7.0180     3.7720     3.2510 ca         1 7F3       0.463200
     23 F23          6.0210     4.6210    -0.4910 f          1 7F3      -0.108900
     24 C24          4.2060    -1.2360     1.0090 ca         1 7F3      -0.089300
     25 C25          3.7480    -1.8380    -0.1530 ca         1 7F3      -0.197300
     26 C26          4.3880    -2.9700    -0.6220 ca         1 7F3       0.420200
     27 N27          5.4210    -3.4770     0.0220 nb         1 7F3      -0.482000
     28 C28          5.8840    -2.9300     1.1300 ca         1 7F3       0.279600
     29 C29          5.2980    -1.7950     1.6550 ca         1 7F3      -0.148300
     30 C30          7.0670    -3.5490     1.8280 c3         1 7F3       0.541600
     31 F31          7.5600    -4.6080     1.0590 f          1 7F3      -0.196967
     32 F32          8.0670    -2.5850     1.9930 f          1 7F3      -0.196967
     33 F33          6.6700    -4.0300     3.0810 f          1 7F3      -0.196967
     34 N34          2.0670    -0.0030     4.8360 nz         1 7F3       0.220400
     35 H1          -0.5400     0.0010    -0.9390 ha         1 7F3       0.133000
     36 H2           1.9280     0.0010    -0.9380 ha         1 7F3       0.145000
     37 H6          -1.7790    -0.0010     1.1870 ha         1 7F3       0.147000
     38 H341         2.9110    -0.0030     5.3740 hn         1 7F3       0.221800
     39 H342         1.5330    -0.8210     5.0540 hn         1 7F3       0.221800
     40 H12          2.8840     1.3930    -0.6650 ha         1 7F3       0.122000
     41 H16          5.6520     1.3210     2.5840 ha         1 7F3       0.123000
     42 H13          3.9680     3.4150    -1.5620 ha         1 7F3       0.135000
     43 H18          8.3240     3.6430     0.1270 h4         1 7F3      -0.014400
     44 H22          6.1260     3.5430     3.8220 h4         1 7F3      -0.014400
     45 H20         10.0200     5.0020     3.6750 h5         1 7F3       0.010100
     46 H25          2.9000    -1.4270    -0.6870 ha         1 7F3       0.131000
     47 H29          5.6820    -1.3500     2.5650 ha         1 7F3       0.133000
     48 H26          4.0360    -3.4460    -1.5290 h4         1 7F3       0.001100
     49 H343         1.5510     0.8250     5.0590 hn         1 7F3       0.221800
@<TRIPOS>BOND
     1     1     2 ar  
     2     1     6 ar  
     3     1    35 1   
     4     2     3 ar  
     5     2    36 1   
     6     3     4 ar  
     7     3    10 1   
     8     4     5 ar  
     9     4     8 1   
    10     5     6 ar  
    11     5     7 1   
    12     6    37 1   
    13     8     9 2   
    14     8    34 1   
    15     9    10 1   
    16    10    11 1   
    17    10    24 1   
    18    11    12 ar  
    19    11    16 ar  
    20    12    13 ar  
    21    12    40 1   
    22    13    14 ar  
    23    13    42 1   
    24    14    15 ar  
    25    14    23 1   
    26    15    16 ar  
    27    15    17 1   
    28    16    41 1   
    29    17    18 ar  
    30    17    22 ar  
    31    18    19 ar  
    32    18    43 1   
    33    19    20 ar  
    34    20    21 ar  
    35    20    45 1   
    36    21    22 ar  
    37    22    44 1   
    38    24    25 ar  
    39    24    29 ar  
    40    25    26 ar  
    41    25    46 1   
    42    26    27 ar  
    43    26    48 1   
    44    27    28 ar  
    45    28    29 ar  
    46    28    30 1   
    47    29    47 1   
    48    30    31 1   
    49    30    32 1   
    50    30    33 1   
    51    34    38 1   
    52    34    39 1   
    53    34    49 1   
@<TRIPOS>SUBSTRUCTURE
     1 7F3         1 TEMP              0 ****  ****    0 ROOT
