@<TRIPOS>MOLECULE
7F4
   22    22     1     0     0
SMALL
bcc


@<TRIPOS>ATOM
      1 O            0.0000     0.0000     0.0000 o          1 7F4      -0.685500
      2 C            1.2130     0.0000     0.0000 c          1 7F4       0.593500
      3 NZ           1.8780     0.0000     1.1570 ns         1 7F4      -0.102900
      4 CE           3.3490     0.0060     1.1710 c3         1 7F4       0.019000
      5 CD           3.8490    -1.3680     0.7230 c3         1 7F4      -0.050400
      6 CG           3.9550    -1.4410    -0.7880 c3         1 7F4      -0.022400
      7 CB           2.6140    -1.3760    -1.5000 c3         1 7F4      -0.025400
      8 CA           1.9680    -0.0070    -1.3130 c3         1 7F4      -0.167500
      9 N            1.0360     0.2490    -2.4190 nz         1 7F4       0.103400
     10 H1           1.3720    -0.0040     2.0210 hn         1 7F4       0.214500
     11 H2           3.7010     0.2110     2.1750 h1         1 7F4       0.041200
     12 H3           3.7150     0.7650     0.4900 h1         1 7F4       0.041200
     13 H4           3.1570    -2.1270     1.0670 hc         1 7F4       0.046700
     14 H5           4.8260    -1.5480     1.1560 hc         1 7F4       0.046700
     15 H6           4.4410    -2.3710    -1.0550 hc         1 7F4       0.037700
     16 H7           4.5660    -0.6140    -1.1300 hc         1 7F4       0.037700
     17 H8           1.9590    -2.1370    -1.0930 hc         1 7F4       0.041700
     18 H9           2.7650    -1.5560    -2.5570 hc         1 7F4       0.041700
     19 H10          2.7360     0.7560    -1.2930 hx         1 7F4       0.103700
     20 H11          0.3760    -0.5000    -2.4800 hn         1 7F4       0.229133
     21 H12          0.5500     1.1090    -2.2540 hn         1 7F4       0.229133
     22 HN3          1.5470     0.3140    -3.2770 hn         1 7F4       0.229133
@<TRIPOS>BOND
     1     1     2 2   
     2     2     3 1   
     3     2     8 1   
     4     3     4 1   
     5     3    10 1   
     6     4     5 1   
     7     4    11 1   
     8     4    12 1   
     9     5     6 1   
    10     5    13 1   
    11     5    14 1   
    12     6     7 1   
    13     6    15 1   
    14     6    16 1   
    15     7     8 1   
    16     7    17 1   
    17     7    18 1   
    18     8     9 1   
    19     8    19 1   
    20     9    20 1   
    21     9    21 1   
    22     9    22 1   
@<TRIPOS>SUBSTRUCTURE
     1 7F4         1 TEMP              0 ****  ****    0 ROOT
