@<TRIPOS>MOLECULE
7F5
   47    49     1     0     0
SMALL
bcc


@<TRIPOS>ATOM
      1 N01          0.0000     0.0000     0.0000 nc         1 7F5      -0.608000
      2 C02          1.3040     0.0000     0.0000 cd         1 7F5       0.231400
      3 N03          1.7370     0.0000     1.2890 na         1 7F5       0.295300
      4 C04          0.6210    -0.0000     2.0870 cd         1 7F5      -0.394900
      5 C05         -0.4460    -0.0000     1.2660 cc         1 7F5       0.320200
      6 C06          0.5930    -0.0010     3.5940 c3         1 7F5       0.115200
      7 C1'          9.2040    -3.4140    -5.7490 ca         1 7F5      -0.063300
      8 N11          3.3220    -0.0020     3.0170 nb         1 7F5      -0.636000
      9 C12          3.0640    -0.0010     1.7190 ca         1 7F5       0.541500
     10 N13          4.0340    -0.0010     0.8190 nb         1 7F5      -0.632000
     11 C14          5.3030    -0.0030     1.1910 ca         1 7F5       0.441600
     12 C15          5.6100    -0.0040     2.5430 ca         1 7F5      -0.353600
     13 C16          4.5690    -0.0030     3.4590 ca         1 7F5       0.470200
     14 C17          6.4010    -0.0040     0.1610 c3         1 7F5      -0.075700
     15 C18          6.2060    -1.1850    -0.7920 c3         1 7F5       0.145800
     16 N19          7.2760    -1.1860    -1.7980 n7         1 7F5      -0.588200
     17 C2'         10.3850    -4.0870    -5.4990 ca         1 7F5      -0.130000
     18 C20          7.1200    -2.3090    -2.7310 c3         1 7F5       0.143800
     19 C21          8.2510    -2.2760    -3.7610 c3         1 7F5      -0.028400
     20 C22          8.0890    -3.4460    -4.7350 c3         1 7F5       0.029900
     21 C3'         11.4080    -4.0570    -6.4320 ca         1 7F5       0.107900
     22 C4'         11.2460    -3.3540    -7.6130 ca         1 7F5      -0.137000
     23 C5'         10.0630    -2.6820    -7.8610 ca         1 7F5      -0.071000
     24 C6'          9.0450    -2.7070    -6.9270 ca         1 7F5      -0.112000
     25 F7'         12.5630    -4.7140    -6.1880 f          1 7F5      -0.128900
     26 H02          1.9360     0.0000    -0.8800 h5         1 7F5       0.035100
     27 H05         -1.4840    -0.0000     1.5740 h4         1 7F5       0.006100
     28 H06         -0.4350    -0.0010     3.9370 hc         1 7F5       0.011700
     29 H06A         1.0970    -0.8860     3.9640 hc         1 7F5       0.011700
     30 H06B         1.0980     0.8830     3.9650 hc         1 7F5       0.011700
     31 H16          4.7740    -0.0040     4.5220 h4         1 7F5      -0.009900
     32 H15          6.6400    -0.0040     2.8770 ha         1 7F5       0.133000
     33 H17          7.3610    -0.0940     0.6560 hc         1 7F5       0.033700
     34 H17A         6.3710     0.9220    -0.4010 hc         1 7F5       0.033700
     35 H18          5.2460    -1.0950    -1.2860 h1         1 7F5       0.016200
     36 H18A         6.2370    -2.1100    -0.2300 h1         1 7F5       0.016200
     37 HN19         7.2570    -0.3240    -2.3070 hn         1 7F5       0.254800
     38 H20          6.1670    -2.2270    -3.2390 h1         1 7F5       0.008700
     39 H20A         7.1590    -3.2420    -2.1820 h1         1 7F5       0.008700
     40 H21          9.2050    -2.3580    -3.2540 hc         1 7F5       0.023700
     41 H21A         8.2130    -1.3430    -4.3100 hc         1 7F5       0.023700
     42 H22          8.1270    -4.3800    -4.1860 hc         1 7F5       0.020700
     43 H22A         7.1360    -3.3640    -5.2430 hc         1 7F5       0.020700
     44 H6'          8.1180    -2.1810    -7.1210 ha         1 7F5       0.109000
     45 H5'          9.9370    -2.1300    -8.7840 ha         1 7F5       0.106000
     46 H4'         12.0450    -3.3320    -8.3440 ha         1 7F5       0.119000
     47 H2'         10.5100    -4.6380    -4.5750 ha         1 7F5       0.122000
@<TRIPOS>BOND
     1     1     2 2   
     2     1     5 1   
     3     2     3 1   
     4     2    26 1   
     5     3     4 1   
     6     3     9 1   
     7     4     5 2   
     8     4     6 1   
     9     5    27 1   
    10     6    28 1   
    11     6    29 1   
    12     6    30 1   
    13     7    17 ar  
    14     7    20 1   
    15     7    24 ar  
    16     8     9 ar  
    17     8    13 ar  
    18     9    10 ar  
    19    10    11 ar  
    20    11    12 ar  
    21    11    14 1   
    22    12    13 ar  
    23    12    32 1   
    24    13    31 1   
    25    14    15 1   
    26    14    33 1   
    27    14    34 1   
    28    15    16 1   
    29    15    35 1   
    30    15    36 1   
    31    16    18 1   
    32    16    37 1   
    33    17    21 ar  
    34    17    47 1   
    35    18    19 1   
    36    18    38 1   
    37    18    39 1   
    38    19    20 1   
    39    19    40 1   
    40    19    41 1   
    41    20    42 1   
    42    20    43 1   
    43    21    22 ar  
    44    21    25 1   
    45    22    23 ar  
    46    22    46 1   
    47    23    24 ar  
    48    23    45 1   
    49    24    44 1   
@<TRIPOS>SUBSTRUCTURE
     1 7F5         1 TEMP              0 ****  ****    0 ROOT
