@<TRIPOS>MOLECULE
molecule
   30    31     1     0     0
SMALL
bcc


@<TRIPOS>ATOM
      1 C1           1.5070     0.0000     0.0000 c3         1 7F6       0.201900
      2 C2           2.0170     0.0000     1.4420 c3         1 7F6       0.201900
      3 C3           3.5190     0.1230     1.4430 ca         1 7F6      -0.121300
      4 C4           4.3060    -1.0110     1.5130 ca         1 7F6      -0.103250
      5 C5           5.6840    -0.8980     1.5140 ca         1 7F6      -0.136500
      6 C6           6.2750     0.3500     1.4450 ca         1 7F6      -0.124000
      7 C8           4.1100     1.3710     1.3690 ca         1 7F6      -0.103250
      8 C7           5.4880     1.4840     1.3750 ca         1 7F6      -0.136500
      9 O1           1.9830     1.1660    -0.6740 oh         1 7F6      -0.587800
     10 C9           0.0000     0.0000     0.0000 ca         1 7F6      -0.121300
     11 C14         -0.6910     1.1930     0.0990 ca         1 7F6      -0.103250
     12 C13         -2.0740     1.1940     0.0950 ca         1 7F6      -0.136500
     13 C12         -2.7650     0.0010    -0.0090 ca         1 7F6      -0.124000
     14 C11         -2.0740    -1.1920    -0.1090 ca         1 7F6      -0.136500
     15 C10         -0.6910    -1.1930    -0.1030 ca         1 7F6      -0.103250
     16 H1           1.8680    -0.8850    -0.5110 h1         1 7F6       0.043700
     17 H2           1.7300    -0.9250     1.9260 h1         1 7F6       0.043700
     18 H4           3.8430    -1.9890     1.5670 ha         1 7F6       0.139500
     19 H5           6.3010    -1.7870     1.5690 ha         1 7F6       0.129250
     20 H6           7.3550     0.4390     1.4480 ha         1 7F6       0.127000
     21 H7           3.4940     2.2600     1.3140 ha         1 7F6       0.139500
     22 H8           5.9510     2.4610     1.3190 ha         1 7F6       0.129250
     23 H9           2.1320     0.9650    -1.5830 ho         1 7F6       0.402000
     24 H10         -0.1490     2.1270     0.1800 ha         1 7F6       0.139500
     25 H11         -2.6150     2.1290     0.1720 ha         1 7F6       0.129250
     26 H12         -3.8480     0.0020    -0.0140 ha         1 7F6       0.127000
     27 H13         -2.6160    -2.1260    -0.1900 ha         1 7F6       0.129250
     28 H14         -0.1500    -2.1280    -0.1810 ha         1 7F6       0.139500
     29 O2           1.4480     1.1040     2.1480 oh         1 7F6      -0.587800
     30 H3           1.1980     0.8270     3.0140 ho         1 7F6       0.402000
@<TRIPOS>BOND
     1    12    13 ar
     2    12    11 ar
     3    13    14 ar
     4    11    10 ar
     5    14    15 ar
     6    10    15 ar
     7    10     1 1
     8     1     2 1
     9     1     9 1
    10     2     3 1
    11     7     3 ar
    12     7     8 ar
    13     3     4 ar
    14     8     6 ar
    15     4     5 ar
    16     6     5 ar
    17     1    16 1
    18     2    17 1
    19     4    18 1
    20     5    19 1
    21     6    20 1
    22     7    21 1
    23     8    22 1
    24     9    23 1
    25    11    24 1
    26    12    25 1
    27    13    26 1
    28    14    27 1
    29    15    28 1
    30     2    29 1
    31    29    30 1
@<TRIPOS>SUBSTRUCTURE
     1 7F6         1 TEMP              0 ****  ****    0 ROOT
