@<TRIPOS>MOLECULE
7F7
   42    44     1     0     0
SMALL
bcc


@<TRIPOS>ATOM
      1 OAE          0.0000     0.0000     0.0000 o          1 7F7      -0.727833
      2 PAX          1.6100     0.0000     0.0000 p5         1 7F7       0.914500
      3 OAF          2.1020     0.0000     1.3960 o          1 7F7      -0.727833
      4 OAC          2.1470    -1.3150    -0.7580 o          1 7F7      -0.727833
      5 OAQ          2.1470     1.3140    -0.7580 os         1 7F7      -0.644000
      6 CAM          3.5320     1.6580    -0.8350 c3         1 7F7       0.157000
      7 CAT          3.6900     2.9400    -1.6110 c2         1 7F7       0.024000
      8 CAH          2.5850     3.5890    -2.1200 c2         1 7F7      -0.090000
      9 NAO          2.7090     4.7130    -2.8000 n2         1 7F7      -0.036000
     10 CAS          3.8820     5.2670    -3.0290 c2         1 7F7      -0.182000
     11 CAA          3.9580     6.5520    -3.8140 c3         1 7F7      -0.045000
     12 CAU          5.0490     4.6850    -2.5550 c2         1 7F7       0.039000
     13 OAD          6.2550     5.2610    -2.7910 oh         1 7F7      -0.229000
     14 CAV          4.9590     3.4910    -1.8200 c3         1 7F7      -0.227000
     15 CAG          6.1710     2.8310    -1.2940 c2         1 7F7      -0.338000
     16 N            7.3350     3.3510    -1.5070 n2         1 7F7      -0.077000
     17 CA           8.5370     2.6960    -0.9850 c3         1 7F7      -0.043000
     18 CB           9.2660     3.6440    -0.0300 c3         1 7F7      -0.095000
     19 CAJ         10.1130     2.8650     0.9590 c3         1 7F7      -0.110000
     20 CAI         11.2800     2.1330     0.3230 c3         1 7F7      -0.127000
     21 CAK         10.7870     1.0070    -0.5870 c3         1 7F7      -0.078000
     22 NAP         10.5220     1.5640    -1.9250 ns         1 7F7      -0.019000
     23 C            9.4690     2.3560    -2.1290 c2         1 7F7       0.221000
     24 O            9.2560     2.8050    -3.2350 o          1 7F7      -0.403000
     25 H3           4.0740     0.8640    -1.3350 h1         1 7F7       0.056500
     26 H4           3.9270     1.7900     0.1650 h1         1 7F7       0.056500
     27 H5           1.5990     3.1710    -1.9570 h4         1 7F7       0.181000
     28 H6           2.9780     6.7910    -4.2100 hc         1 7F7       0.035667
     29 H7           4.2900     7.3530    -3.1650 hc         1 7F7       0.035667
     30 H8           4.6590     6.4350    -4.6310 hc         1 7F7       0.035667
     31 H9           6.3230     6.0610    -2.2970 ho         1 7F7       0.190000
     32 H10          5.8440     2.7780    -2.3260 DU         1 7F7       0.342000
     33 H11          8.2640     1.7900    -0.4580 h1         1 7F7       0.089000
     34 H12          8.5360     4.2320     0.5130 hc         1 7F7       0.063000
     35 H13          9.9060     4.3040    -0.6040 hc         1 7F7       0.063000
     36 H14         10.5010     3.5560     1.6970 hc         1 7F7       0.054500
     37 H15          9.4810     2.1390     1.4560 hc         1 7F7       0.054500
     38 H16         11.8620     2.8340    -0.2630 hc         1 7F7       0.050500
     39 H17         11.9020     1.7120     1.1040 hc         1 7F7       0.050500
     40 H18         11.5480     0.2390    -0.6590 h1         1 7F7       0.065500
     41 H19          9.8750     0.5860    -0.1820 h1         1 7F7       0.065500
     42 H20         11.1360     1.3460    -2.6850 hn         1 7F7       0.083000
@<TRIPOS>BOND
     1     1     2 1   
     2     2     3 1   
     3     2     4 1   
     4     2     5 1   
     5     5     6 1   
     6     6     7 1   
     7     6    25 1   
     8     6    26 1   
     9     7     8 1   
    10     7    14 1   
    11     8     9 1   
    12     8    27 1   
    13     9    10 1   
    14    10    11 1   
    15    10    12 1   
    16    11    28 1   
    17    11    29 1   
    18    11    30 1   
    19    12    13 1   
    20    12    14 1   
    21    13    31 1   
    22    14    15 1   
    23    14    32 1   
    24    15    16 1   
    25    15    32 1   
    26    16    17 1   
    27    17    18 1   
    28    17    23 1   
    29    17    33 1   
    30    18    19 1   
    31    18    34 1   
    32    18    35 1   
    33    19    20 1   
    34    19    36 1   
    35    19    37 1   
    36    20    21 1   
    37    20    38 1   
    38    20    39 1   
    39    21    22 1   
    40    21    40 1   
    41    21    41 1   
    42    22    23 1   
    43    22    42 1   
    44    23    24 1   
@<TRIPOS>SUBSTRUCTURE
     1 7F7         1 TEMP              0 ****  ****    0 ROOT
