@<TRIPOS>MOLECULE
molecule
   42    43     1     0     0
SMALL
bcc


@<TRIPOS>ATOM
      1 OAE          0.0000     0.0000     0.0000 o          1 7F7      -0.900833
      2 PAX          1.6100     0.0000     0.0000 p5         1 7F7       1.164900
      3 OAF          2.1020     0.0000     1.3960 o          1 7F7      -0.900833
      4 OAC          2.1470    -1.3150    -0.7580 o          1 7F7      -0.900833
      5 OAQ          2.1470     1.3140    -0.7580 os         1 7F7      -0.573200
      6 CAM          3.5320     1.6580    -0.8350 c3         1 7F7       0.245700
      7 CAT          3.6900     2.9400    -1.6110 ca         1 7F7      -0.124600
      8 CAH          2.5850     3.5890    -2.1200 ca         1 7F7       0.431200
      9 NAO          2.7090     4.7130    -2.8000 nb         1 7F7      -0.692000
     10 CAS          3.8820     5.2670    -3.0290 ca         1 7F7       0.329600
     11 CAA          3.9580     6.5520    -3.8140 c3         1 7F7      -0.127400
     12 CAU          5.0490     4.6850    -2.5550 ca         1 7F7       0.013800
     13 OAD          6.2550     5.2610    -2.7910 oh         1 7F7      -0.498100
     14 CAV          4.9590     3.4910    -1.8200 ca         1 7F7      -0.170900
     15 CAG          6.1710     2.8310    -1.2940 ce         1 7F7       0.509800
     16 N            7.3350     3.3510    -1.5070 n2         1 7F7      -0.592900
     17 CA           8.5370     2.6960    -0.9850 c3         1 7F7       0.053500
     18 CB           9.2660     3.6440    -0.0300 c3         1 7F7      -0.063400
     19 CAJ         10.1130     2.8650     0.9590 c3         1 7F7      -0.087400
     20 CAI         11.2800     2.1330     0.3230 c3         1 7F7      -0.105400
     21 CAK         10.7870     1.0070    -0.5870 c3         1 7F7       0.101000
     22 NAP         10.5220     1.5640    -1.9250 ns         1 7F7      -0.592900
     23 C            9.4690     2.3560    -2.1290 c          1 7F7       0.704500
     24 O            9.2560     2.8050    -3.2350 o          1 7F7      -0.630500
     25 H3           4.0740     0.8640    -1.3350 h1         1 7F7       0.035700
     26 H4           3.9270     1.7900     0.1650 h1         1 7F7       0.035700
     27 H5           1.5990     3.1710    -1.9570 h4         1 7F7       0.085100
     28 H6           4.4440     6.3670    -4.7640 hc         1 7F7       0.034033
     29 H7           2.9570     6.9280    -3.9880 hc         1 7F7       0.034033
     30 H8           4.5260     7.2850    -3.2540 hc         1 7F7       0.034033
     31 H9           6.4610     5.1930    -3.7090 ho         1 7F7       0.408000
     32 H10          6.0840     1.9100    -0.7300 h4         1 7F7      -0.004200
     33 H11          8.2640     1.7900    -0.4580 h1         1 7F7       0.043700
     34 H12          9.9060     4.3040    -0.6040 hc         1 7F7       0.058700
     35 H13          8.5360     4.2320     0.5130 hc         1 7F7       0.058700
     36 H14          9.4810     2.1390     1.4560 hc         1 7F7       0.041700
     37 H15         10.5010     3.5560     1.6970 hc         1 7F7       0.041700
     38 H16         11.8620     2.8340    -0.2630 hc         1 7F7       0.041200
     39 H17         11.9020     1.7120     1.1040 hc         1 7F7       0.041200
     40 H18         11.5480     0.2390    -0.6590 h1         1 7F7       0.051200
     41 H19          9.8750     0.5860    -0.1820 h1         1 7F7       0.051200
     42 H20         11.1360     1.3460    -2.6850 hn         1 7F7       0.314500
@<TRIPOS>BOND
     1    11    10 1
     2    10     9 ar
     3    10    12 ar
     4     9     8 ar
     5    13    12 1
     6    12    14 ar
     7     8     7 ar
     8    14     7 ar
     9    14    15 1
    10     7     6 1
    11    15    16 2
    12    24    23 2
    13     6     5 1
    14    16    17 1
    15     5     2 1
    16    23    17 1
    17    23    22 1
    18    17    18 1
    19     3     2 1
    20     2     4 1
    21     2     1 1
    22    22    21 1
    23    18    19 1
    24    21    20 1
    25    19    20 1
    26     6    25 1
    27     6    26 1
    28     8    27 1
    29    11    28 1
    30    11    29 1
    31    11    30 1
    32    13    31 1
    33    15    32 1
    34    17    33 1
    35    18    34 1
    36    18    35 1
    37    19    36 1
    38    19    37 1
    39    20    38 1
    40    20    39 1
    41    21    40 1
    42    21    41 1
    43    22    42 1
@<TRIPOS>SUBSTRUCTURE
     1 7F7         1 TEMP              0 ****  ****    0 ROOT
