@<TRIPOS>MOLECULE
molecule
   45    46     1     0     0
SMALL
bcc


@<TRIPOS>ATOM
      1 C1           0.0000     0.0000     0.0000 ca         1 7F9      -0.192000
      2 N1          -1.9080     0.6580     3.7770 n          1 7F9      -0.346000
      3 O1          -0.2860    -0.5910     4.6400 o          1 7F9      -0.567100
      4 C2           1.3920     0.0000     0.0000 ca         1 7F9       0.161100
      5 N2          -4.4090     0.6920     1.0640 ns         1 7F9      -0.593900
      6 O2          -4.3650     1.1940     8.7000 os         1 7F9      -0.330900
      7 C3           2.0910     0.0000     1.1970 ca         1 7F9      -0.244000
      8 C4           1.4060     0.0010     2.4000 ca         1 7F9       0.199100
      9 O4           2.0670    -0.0010    -1.1780 oh         1 7F9      -0.520100
     10 C5           0.0030     0.0010     2.4020 ca         1 7F9      -0.180600
     11 O5          -3.9560    -0.6400     2.7790 o          1 7F9      -0.569100
     12 C6          -0.6920     0.0000     1.1890 ca         1 7F9      -0.087000
     13 C7          -0.7340     0.0010     3.6770 c          1 7F9       0.693700
     14 C8          -2.5310     0.7940     5.0240 ca         1 7F9       0.035600
     15 C9          -1.8670     0.3980     6.1780 ca         1 7F9      -0.124000
     16 C10         -2.4820     0.5320     7.4070 ca         1 7F9      -0.170000
     17 C11         -3.7610     1.0630     7.4900 ca         1 7F9       0.116100
     18 C12         -4.4230     1.4590     6.3360 ca         1 7F9      -0.170000
     19 C13         -3.8080     1.3310     5.1070 ca         1 7F9      -0.124000
     20 C14         -5.6820     1.7480     8.7110 c3         1 7F9       0.129700
     21 C15         -3.6820     0.3600     2.1490 c          1 7F9       0.618100
     22 C16         -5.5290    -0.1550     0.6440 c3         1 7F9       0.110000
     23 C17         -2.5310     1.2300     2.5810 c3         1 7F9      -0.010000
     24 C18         -6.1800     0.4430    -0.6040 c3         1 7F9      -0.113100
     25 H1          -0.5400    -0.0000    -0.9390 ha         1 7F9       0.145000
     26 H2          -4.1740     1.5090     0.5350 hn         1 7F9       0.310500
     27 H3           3.1740     0.0000     1.1920 ha         1 7F9       0.150000
     28 H4           2.8570    -0.5380     3.4890 ho         1 7F9       0.431000
     29 H5           2.2590     0.8860    -1.4310 ho         1 7F9       0.426000
     30 H6          -1.7750     0.0000     1.1850 ha         1 7F9       0.157000
     31 H7          -0.8690    -0.0160     6.1130 ha         1 7F9       0.163500
     32 H8          -1.9650     0.2230     8.3080 ha         1 7F9       0.139000
     33 H9          -5.4200     1.8780     6.4020 ha         1 7F9       0.139000
     34 H10         -4.3260     1.6400     4.2080 ha         1 7F9       0.163500
     35 H11         -5.6580     2.7460     8.2900 h1         1 7F9       0.038700
     36 H12         -6.3410     1.1230     8.1210 h1         1 7F9       0.038700
     37 H13         -6.0460     1.7940     9.7300 h1         1 7F9       0.038700
     38 H14         -5.1650    -1.1500     0.4200 h1         1 7F9       0.056700
     39 H15         -6.2600    -0.2090     1.4420 h1         1 7F9       0.056700
     40 H16         -1.8000     1.2840     1.7830 h1         1 7F9       0.087200
     41 H17         -2.8950     2.2260     2.8050 h1         1 7F9       0.087200
     42 H18         -5.4550     0.4780    -1.4090 hc         1 7F9       0.043367
     43 H19         -6.5260     1.4460    -0.3860 hc         1 7F9       0.043367
     44 H20         -7.0210    -0.1720    -0.9030 hc         1 7F9       0.043367
     45 O3           2.0880     0.0020     3.5720 oh         1 7F9      -0.477100
@<TRIPOS>BOND
     1     9     4 1   
     2    20     6 1   
     3     4     7 ar  
     4     4     1 ar  
     5     6    17 1   
     6     7     8 ar  
     7    18    17 ar  
     8    18    19 ar  
     9     1    12 ar  
    10    17    16 ar  
    11     8    45 1   
    12     8    10 ar  
    13    19    14 ar  
    14    12    10 ar  
    15    16    15 ar  
    16    10    13 1   
    17    14    15 ar  
    18    14     2 1   
    19    13     2 1   
    20    13     3 2   
    21     2    23 1   
    22    11    21 2   
    23    24    22 1   
    24    21    23 1   
    25    21     5 1   
    26    22     5 1   
    27     1    25 1   
    28     5    26 1   
    29     7    27 1   
    30    45    28 1   
    31     9    29 1   
    32    12    30 1   
    33    15    31 1   
    34    16    32 1   
    35    18    33 1   
    36    19    34 1   
    37    20    35 1   
    38    20    36 1   
    39    20    37 1   
    40    22    38 1   
    41    22    39 1   
    42    23    40 1   
    43    23    41 1   
    44    24    42 1   
    45    24    43 1   
    46    24    44 1   
@<TRIPOS>SUBSTRUCTURE
     1 7F9         1 TEMP              0 ****  ****    0 ROOT
