@<TRIPOS>MOLECULE
7FA
   57    52     1     0     0
SMALL
bcc


@<TRIPOS>ATOM
      1 C1          0.7430   -2.1110    0.7360 c3        1 7FA     -0.230000
      2 P1          4.4640    0.1750    2.1280 p5        1 7FA      2.632000
      3 C2         -0.3160   -1.2690    1.3990 c3        1 7FA     -0.155000
      4 O2          3.7540   -1.0860    1.9700 o         1 7FA     -1.088000
      5 C3         -1.6300   -1.3270    0.6500 c3        1 7FA     -0.161000
      6 C4         -2.6830   -0.4690    1.3160 c3        1 7FA     -0.154000
      7 C5         -3.9980   -0.5360    0.5570 c3        1 7FA     -0.050000
      8 C6         -5.0150    0.2760    1.1560 c1        1 7FA     -0.204000
      9 C7         -5.8730    0.9500    1.6480 c1        1 7FA     -0.214000
     10 C8         -9.5660    1.9290    3.1880 c3        1 7FA     -0.255000
     11 C9         -8.3350    2.6640    3.0910 c1        1 7FA     -0.050000
     12 CM          2.4630    1.2560    0.8730 c3        1 7FA     -0.042000
     13 C10        -8.0880    3.9540    3.6030 c2        1 7FA     -0.191000
     14 C11        -8.6150    5.1040    3.1610 c2        1 7FA     -0.244000
     15 C12       -11.7070    4.4970    4.8250 c1        1 7FA     -0.222500
     16 C13       -12.7970    4.2630    5.2560 c1        1 7FA     -0.222500
     17 C14        -7.3880    8.4590    4.2130 c3        1 7FA     -0.213000
     18 C15        -6.8810    9.8130    4.6390 c3        1 7FA     -0.163000
     19 C16        -5.8510    9.6940    5.7410 c3        1 7FA     -0.140000
     20 C17        -5.3280   11.0570    6.1540 c3        1 7FA     -0.247000
     21 C18        -4.4600   10.9930    7.3120 c1        1 7FA     -0.045000
     22 H1          1.7080   -2.0470    1.3010 hc        1 7FA      0.083667
     23 H1A         4.8380    0.5290    3.3010 hp        1 7FA     -0.497000
     24 H2          0.9230   -1.7630   -0.3110 hc        1 7FA      0.083667
     25 H2A         0.4260   -3.1800    0.6960 hc        1 7FA      0.083667
     26 H3         -0.4710   -1.6210    2.4530 hc        1 7FA      0.072500
     27 H3A         0.0330   -0.2030    1.4570 hc        1 7FA      0.072500
     28 H4         -1.4760   -0.9830   -0.4070 hc        1 7FA      0.078000
     29 H4A        -1.9850   -2.3910    0.6010 hc        1 7FA      0.078000
     30 H5         -2.8410   -0.8140    2.3720 hc        1 7FA      0.083500
     31 H5A        -2.3310    0.5950    1.3630 hc        1 7FA      0.083500
     32 H6         -4.3490   -1.6060    0.5150 hc        1 7FA      0.092000
     33 H7         -3.8320   -0.2020   -0.5060 hc        1 7FA      0.092000
     34 H8         -9.8390    1.5610    2.1610 hc        1 7FA      0.116667
     35 H8A        -6.6410    1.5540    2.0870 ha        1 7FA      0.255000
     36 H9         -9.3660    1.0160    3.8160 hc        1 7FA      0.116667
     37 HM          2.6060    1.7080   -0.1440 h1        1 7FA      0.093333
     38 HMA         2.2250    0.1610    0.7950 h1        1 7FA      0.093333
     39 HMB         1.6360    1.8000    1.4000 h1        1 7FA      0.093333
     40 H10       -10.4390    2.4810    3.6230 hc        1 7FA      0.116667
     41 H11        -9.3950    5.1420    2.3900 ha        1 7FA      0.118500
     42 H11A       -7.2720    3.9650    4.3570 ha        1 7FA      0.163000
     43 H12        -8.2460    6.0820    3.5010 ha        1 7FA      0.118500
     44 H13       -10.7370    4.7090    4.4430 ha        1 7FA      0.221500
     45 H14        -8.1490    8.5670    3.4020 hc        1 7FA      0.073333
     46 H14A      -13.7650    4.0560    5.6390 ha        1 7FA      0.221500
     47 H15        -7.8620    7.9280    5.0740 hc        1 7FA      0.073333
     48 H15A       -6.5510    7.8270    3.8290 hc        1 7FA      0.073333
     49 H16        -7.7400   10.4410    4.9940 hc        1 7FA      0.076000
     50 H16A       -6.4290   10.3390    3.7570 hc        1 7FA      0.076000
     51 H17        -6.2990    9.1810    6.6320 hc        1 7FA      0.092500
     52 H17A       -4.9940    9.0600    5.3910 hc        1 7FA      0.092500
     53 H18        -4.8700   11.5690    5.2610 hc        1 7FA      0.110500
     54 H18A       -6.1990   11.7060    6.4830 hc        1 7FA      0.110500
     55 H18B       -3.7840   11.8570    7.4370 ha        1 7FA      0.030000
     56 O1          3.6470    1.4540    1.6110 os        1 7FA     -0.760000
     57 F1          5.7240    0.2620    1.2700 f         1 7FA     -0.524000
@<TRIPOS>BOND
     1    1    3 1
     2    1   22 1
     3    1   24 1
     4    1   25 1
     5    2    4 1
     6    2   23 1
     7    2   56 1
     8    2   57 1
     9    3    5 1
    10    3   26 1
    11    3   27 1
    12    5    6 1
    13    5   28 1
    14    5   29 1
    15    6    7 1
    16    6   30 1
    17    6   31 1
    18    7    8 1
    19    7   32 1
    20    7   33 1
    21    8    9 1
    22    9   35 1
    23   10   11 1
    24   10   34 1
    25   10   36 1
    26   10   40 1
    27   11   13 1
    28   12   37 1
    29   12   38 1
    30   12   39 1
    31   12   56 1
    32   13   14 1
    33   13   42 1
    34   14   41 1
    35   14   43 1
    36   15   16 1
    37   15   44 1
    38   16   46 1
    39   17   18 1
    40   17   45 1
    41   17   47 1
    42   17   48 1
    43   18   19 1
    44   18   49 1
    45   18   50 1
    46   19   20 1
    47   19   51 1
    48   19   52 1
    49   20   21 1
    50   20   53 1
    51   20   54 1
    52   21   55 1
@<TRIPOS>SUBSTRUCTURE
     1 7FA         1 TEMP              0 ****  ****    0 ROOT
