@<TRIPOS>MOLECULE
molecule
   22    21     1     0     0
SMALL
bcc


@<TRIPOS>ATOM
      1 O2           0.0000     0.0000     0.0000 oh         1 7FB      -0.614800
      2 C6           1.4290     0.0000     0.0000 c3         1 7FB       0.115400
      3 C5           1.9390     0.0000     1.4430 c3         1 7FB       0.151100
      4 C4           3.4630    -0.1260     1.4450 c3         1 7FB      -0.083400
      5 C3           3.9630    -0.2510     2.8850 c3         1 7FB      -0.079400
      6 C2           5.4880    -0.3770     2.8880 c3         1 7FB      -0.084400
      7 C1           5.9880    -0.5030     4.3270 c3         1 7FB      -0.091100
      8 O1           1.5610     1.2210     2.0820 oh         1 7FB      -0.601800
      9 H1          -0.3140    -0.0970    -0.8840 ho         1 7FB       0.404000
     10 H2           1.7900     0.8840    -0.5110 h1         1 7FB       0.029200
     11 H3           1.7900    -0.8840    -0.5110 h1         1 7FB       0.029200
     12 H4           1.5070    -0.8370     1.9790 h1         1 7FB       0.040700
     13 H5           3.8990     0.7540     0.9870 hc         1 7FB       0.050700
     14 H6           3.6730     0.6300     3.4460 hc         1 7FB       0.047200
     15 H7           5.9240     0.5040     2.4300 hc         1 7FB       0.039200
     16 H8           5.7780    -1.2560     2.3260 hc         1 7FB       0.039200
     17 H9           5.6450     0.3470     4.9050 hc         1 7FB       0.033033
     18 H10          7.0710    -0.5300     4.3330 hc         1 7FB       0.033033
     19 H11          5.6020    -1.4160     4.7650 hc         1 7FB       0.033033
     20 H12          0.7820     1.0800     2.5930 ho         1 7FB       0.409000
     21 H13          3.7540    -1.0060     0.8840 hc         1 7FB       0.050700
     22 H14          3.5280    -1.1300     3.3430 hc         1 7FB       0.047200
@<TRIPOS>BOND
     1     1     2 1   
     2     3     4 1   
     3     3     2 1   
     4     4     5 1   
     5     5     6 1   
     6     6     7 1   
     7     3     8 1   
     8     1     9 1   
     9     2    10 1   
    10     2    11 1   
    11     3    12 1   
    12     4    13 1   
    13     5    14 1   
    14     6    15 1   
    15     6    16 1   
    16     7    17 1   
    17     7    18 1   
    18     7    19 1   
    19     8    20 1   
    20     4    21 1   
    21     5    22 1   
@<TRIPOS>SUBSTRUCTURE
     1 7FB         1 TEMP              0 ****  ****    0 ROOT
