@<TRIPOS>MOLECULE
molecule
   30    32     1     0     0
SMALL
bcc


@<TRIPOS>ATOM
      1 C10          0.0000     0.0000     0.0000 ca         1 7FC      -0.104500
      2 C15         -6.9420     1.0700     0.2650 ca         1 7FC      -0.014600
      3 C17         -4.7950     1.8830    -0.4530 ca         1 7FC       0.000400
      4 C20         -2.1750     0.0060     1.2110 cc         1 7FC       0.213900
      5 C21         -4.2560    -0.8860     2.0200 c          1 7FC       0.564900
      6 C22         -4.9430     0.0870     1.1500 ca         1 7FC      -0.215600
      7 O01          4.1590     0.0000     0.1570 o          1 7FC      -0.828300
      8 O02         -4.8810    -1.6700     2.7140 o          1 7FC      -0.562100
      9 O03          4.2260    -0.0000     2.3770 o          1 7FC      -0.828300
     10 Cl6         -3.8500     2.9730    -1.4190 cl         1 7FC      -0.073400
     11 C07          1.3760    -0.0000     2.4210 ca         1 7FC      -0.115500
     12 C08          1.3760     0.0000     0.0000 ca         1 7FC      -0.115500
     13 C09          0.0000    -0.0060     2.4220 ca         1 7FC      -0.104500
     14 C11         -6.1720     1.9360    -0.5010 ca         1 7FC      -0.073000
     15 C12         -6.3360     0.1460     1.0890 ca         1 7FC      -0.035000
     16 O13         -2.8180     0.8860     0.4250 os         1 7FC      -0.179200
     17 C16          2.0750     0.0000     1.2100 ca         1 7FC      -0.065600
     18 C18         -0.7000     0.0000     1.2100 ca         1 7FC      -0.118800
     19 C19         -2.8340    -0.8740     2.0180 cd         1 7FC      -0.127100
     20 C23         -4.1640     0.9540     0.3690 ca         1 7FC       0.170100
     21 H1          -0.5410    -0.0000    -0.9380 ha         1 7FC       0.123000
     22 H4          -2.4480    -2.6220     2.6400 ho         1 7FC       0.417000
     23 H5           1.9180    -0.0030     3.3590 ha         1 7FC       0.158500
     24 H6           1.9180     0.0000    -0.9380 ha         1 7FC       0.158500
     25 H7          -0.5410    -0.0060     3.3600 ha         1 7FC       0.123000
     26 H8          -6.6580     2.6600    -1.1430 ha         1 7FC       0.158000
     27 H9          -6.9320    -0.6040     1.5930 ha         1 7FC       0.170000
     28 O04         -2.1380    -1.7450     2.7950 oh         1 7FC      -0.465100
     29 C14          3.5510    -0.0000     1.2090 c          1 7FC       0.875200
     30 Cl5         -8.6730     1.1560     0.1890 cl         1 7FC      -0.106400
@<TRIPOS>BOND
     1     7    29 1   
     2    28    19 1   
     3    12     1 ar  
     4    12    17 ar  
     5    29    17 1   
     6    29     9 1   
     7     1    18 ar  
     8    17    11 ar  
     9     8     5 2   
    10    19     5 1   
    11    19     4 2   
    12    18     4 1   
    13    18    13 ar  
    14     5     6 1   
    15    11    13 ar  
    16     4    16 1   
    17     6    15 ar  
    18     6    20 ar  
    19    16    20 1   
    20    15     2 ar  
    21    20     3 ar  
    22     2    14 ar  
    23     2    30 1   
    24     3    14 ar  
    25     3    10 1   
    26     1    21 1   
    27    28    22 1   
    28    11    23 1   
    29    12    24 1   
    30    13    25 1   
    31    14    26 1   
    32    15    27 1   
@<TRIPOS>SUBSTRUCTURE
     1 7FC         1 TEMP              0 ****  ****    0 ROOT
