@<TRIPOS>MOLECULE
molecule
   53    55     1     0     0
SMALL
bcc


@<TRIPOS>ATOM
      1 O01          0.0000     0.0000     0.0000 oh         1 7FD      -0.522100
      2 C02          1.3590     0.0000     0.0000 ca         1 7FD       0.104100
      3 C03          2.0510     0.0000     1.2040 ca         1 7FD      -0.153500
      4 C04          3.4310    -0.0000     1.2080 ca         1 7FD      -0.105000
      5 C05          2.0520    -0.0060    -1.2030 ca         1 7FD      -0.153500
      6 C06          3.4310    -0.0060    -1.2050 ca         1 7FD      -0.105000
      7 C07          4.1300    -0.0010     0.0020 ca         1 7FD      -0.049800
      8 C08          5.6120    -0.0010     0.0020 ce         1 7FD      -0.050400
      9 C09          6.3520    -1.1660    -0.5340 ca         1 7FD      -0.022800
     10 C10          6.2580    -2.4050     0.1020 ca         1 7FD      -0.121500
     11 C11          6.9400    -3.4820    -0.3900 ca         1 7FD      -0.104000
     12 C12          7.7340    -3.3420    -1.5360 ca         1 7FD      -0.087800
     13 C13          8.4680    -4.4980    -2.0680 ce         1 7FD      -0.014200
     14 C20          7.8270    -2.0990    -2.1720 ca         1 7FD      -0.104000
     15 C21          7.1400    -1.0260    -1.6790 ca         1 7FD      -0.121500
     16 C22          6.2830     1.0520     0.4880 c2         1 7FD      -0.081400
     17 C23          7.7950     1.0750     0.4920 c3         1 7FD      -0.048200
     18 C24          8.2730     1.4290     1.9040 c3         1 7FD      -0.075900
     19 C25          7.6210     2.7410     2.3470 c3         1 7FD      -0.082400
     20 C26          6.1060     2.5620     2.4380 c3         1 7FD      -0.075900
     21 C27          5.5460     2.2530     1.0400 c3         1 7FD      -0.048200
     22 H1          -0.3140     0.8890    -0.0030 ho         1 7FD       0.418000
     23 H2           1.5080     0.0000     2.1410 ha         1 7FD       0.141500
     24 H3           3.9700     0.0020     2.1470 ha         1 7FD       0.138500
     25 H4           1.5090    -0.0100    -2.1400 ha         1 7FD       0.141500
     26 H5           3.9710    -0.0090    -2.1440 ha         1 7FD       0.138500
     27 H7           5.6430    -2.5130     0.9880 ha         1 7FD       0.139000
     28 H8           6.8660    -4.4430     0.1040 ha         1 7FD       0.137500
     29 H9           8.3940    -5.4590    -1.5740 ha         1 7FD       0.157000
     30 H12          8.4400    -1.9880    -3.0590 ha         1 7FD       0.137500
     31 H13          7.2120    -0.0640    -2.1710 ha         1 7FD       0.139000
     32 H15          8.1490     1.8210    -0.2090 hc         1 7FD       0.056450
     33 H16          8.1740     0.0990     0.2150 hc         1 7FD       0.056450
     34 H17          7.9920     0.6380     2.5880 hc         1 7FD       0.043700
     35 H18          9.3500     1.5460     1.9010 hc         1 7FD       0.043700
     36 H19          8.0080     3.0220     3.3190 hc         1 7FD       0.042200
     37 H20          7.8480     3.5160     1.6250 hc         1 7FD       0.042200
     38 H21          5.6570     3.4740     2.8120 hc         1 7FD       0.043700
     39 H22          5.8790     1.7400     3.1060 hc         1 7FD       0.043700
     40 H23          5.7000     3.1060     0.3900 hc         1 7FD       0.056450
     41 H24          4.4880     2.0290     1.1130 hc         1 7FD       0.056450
     42 C1           9.2340    -4.3620    -3.1720 cf         1 7FD      -0.231200
     43 C2           9.9640    -5.5120    -3.7010 c          1 7FD       0.640300
     44 O1           9.8810    -6.5920    -3.1480 o          1 7FD      -0.560000
     45 O2          10.7280    -5.3760    -4.8050 os         1 7FD      -0.424900
     46 C5          11.4140    -6.5410    -5.2670 c3         1 7FD       0.145400
     47 C6          12.2230    -6.1950    -6.5170 c3         1 7FD      -0.095100
     48 H6           9.3070    -3.4010    -3.6650 ha         1 7FD       0.146000
     49 H10         10.6920    -7.3130    -5.5060 h1         1 7FD       0.046700
     50 H11         12.0810    -6.8980    -4.4920 h1         1 7FD       0.046700
     51 H14         12.9450    -5.4240    -6.2770 hc         1 7FD       0.046367
     52 H25         12.7420    -7.0790    -6.8670 hc         1 7FD       0.046367
     53 H26         11.5560    -5.8370    -7.2920 hc         1 7FD       0.046367
@<TRIPOS>BOND
     1     5     6 ar
     2     5     2 ar
     3     1     2 1
     4     6     7 ar
     5    13    12 1
     6    14    15 ar
     7    14    12 ar
     8     2     3 ar
     9    15     9 ar
    10    12    11 ar
    11     7     8 1
    12     7     4 ar
    13     9     8 1
    14     9    10 ar
    15    11    10 ar
    16     3     4 ar
    17     8    16 2
    18    20    21 1
    19    20    19 1
    20    16    21 1
    21    16    17 1
    22    18    19 1
    23    18    17 1
    24     1    22 1
    25     3    23 1
    26     4    24 1
    27     5    25 1
    28     6    26 1
    29    10    27 1
    30    11    28 1
    31    13    29 1
    32    14    30 1
    33    15    31 1
    34    17    32 1
    35    17    33 1
    36    18    34 1
    37    18    35 1
    38    19    36 1
    39    19    37 1
    40    20    38 1
    41    20    39 1
    42    21    40 1
    43    21    41 1
    44    13    42 2
    45    42    43 1
    46    43    44 2
    47    43    45 1
    48    45    46 1
    49    46    47 1
    50    42    48 1
    51    46    49 1
    52    46    50 1
    53    47    51 1
    54    47    52 1
    55    47    53 1
@<TRIPOS>SUBSTRUCTURE
     1 7FD         1 TEMP              0 ****  ****    0 ROOT
