@<TRIPOS>MOLECULE
molecule
   67    71     1     0     0
SMALL
bcc


@<TRIPOS>ATOM
      1 Cl           0.0000     0.0000     0.0000 cl         1 7FE      -0.111000
      2 C1          12.0370     0.9380    -6.1620 ca         1 7FE       0.174100
      3 O1          13.1650     0.9740    -6.9150 oh         1 7FE      -0.520100
      4 C2          10.8310     1.3600    -6.7030 ca         1 7FE      -0.263000
      5 N2           2.6410     0.0000     0.0000 nb         1 7FE      -0.721000
      6 C3           9.6800     1.3240    -5.9350 ca         1 7FE       0.202100
      7 N3           1.6360     0.0020     2.0750 nb         1 7FE      -0.732000
      8 O3           7.4080     1.1020    -4.3670 o          1 7FE      -0.559100
      9 C4           9.7420     0.8600    -4.6120 ca         1 7FE      -0.197600
     10 N4          10.4320     1.2550     3.5820 n3         1 7FE      -0.713600
     11 C5          10.9660     0.4390    -4.0820 ca         1 7FE      -0.102000
     12 C6          12.0940     0.4740    -4.8510 ca         1 7FE      -0.201000
     13 C7           8.4250     0.5490    -3.9890 c          1 7FE       0.680700
     14 C8           9.6180    -0.8800    -2.4180 c3         1 7FE       0.075300
     15 C9          10.1230    -0.3600    -1.0970 ca         1 7FE      -0.126300
     16 C10          7.3060    -0.0970    -1.9940 ca         1 7FE       0.079600
     17 C11         10.1820     1.0020    -0.8670 ca         1 7FE      -0.116500
     18 C12         10.6450     1.4790     0.3450 ca         1 7FE      -0.114000
     19 C13         11.0510     0.5950     1.3270 ca         1 7FE      -0.070300
     20 C14         10.9910    -0.7670     1.0970 ca         1 7FE      -0.114000
     21 C15         10.5230    -1.2450    -0.1140 ca         1 7FE      -0.116500
     22 C16         11.5560     1.1150     2.6470 c3         1 7FE       0.201100
     23 C17          7.2440    -0.9260    -0.8800 ca         1 7FE      -0.174000
     24 C18          6.1340    -0.9040    -0.0630 ca         1 7FE      -0.077000
     25 C19          5.0710    -0.0500    -0.3560 cp         1 7FE      -0.183500
     26 C20          5.1350     0.7810    -1.4750 ca         1 7FE      -0.077000
     27 C21          6.2500     0.7600    -2.2850 ca         1 7FE      -0.174000
     28 C22          3.8550     0.0000     0.5480 cp         1 7FE       0.538800
     29 C23          1.5620     0.0000     0.7570 ca         1 7FE       0.769000
     30 C24          2.8080     0.0030     2.6930 ca         1 7FE       0.468200
     31 C25          3.9680     0.0020     1.9410 ca         1 7FE      -0.326900
     32 C26          5.3200     0.0030     2.6070 c3         1 7FE      -0.041800
     33 C27          9.5320     2.3530     3.1680 c3         1 7FE       0.150800
     34 C28          9.0040     2.9530     4.4940 c3         1 7FE      -0.098400
     35 C29         10.2560     2.8520     5.4040 c3         1 7FE      -0.098400
     36 C30         10.9120     1.5320     4.9490 c3         1 7FE       0.150800
     37 H1          13.2690     0.1510    -7.3640 ho         1 7FE       0.428000
     38 H2          10.8020     1.7760    -7.7030 ha         1 7FE       0.150000
     39 H3           8.5640     1.7670    -7.3980 ho         1 7FE       0.421000
     40 H5          11.0180     0.0790    -3.0620 ha         1 7FE       0.194000
     41 H6          13.0390     0.1470    -4.4360 ha         1 7FE       0.148000
     42 H7          10.3900    -0.7680    -3.1690 h1         1 7FE       0.091200
     43 H8           9.3600    -1.9270    -2.3190 h1         1 7FE       0.091200
     44 H9           9.8650     1.6960    -1.6370 ha         1 7FE       0.137000
     45 H10         10.6920     2.5470     0.5240 ha         1 7FE       0.136000
     46 H11         11.3060    -1.4610     1.8670 ha         1 7FE       0.136000
     47 H12         10.4760    -2.3120    -0.2940 ha         1 7FE       0.137000
     48 H13         12.0250     2.0800     2.4990 h1         1 7FE       0.041200
     49 H14         12.2800     0.4200     3.0560 h1         1 7FE       0.041200
     50 H15          8.0700    -1.5900    -0.6530 ha         1 7FE       0.171500
     51 H16          6.0870    -1.5510     0.8050 ha         1 7FE       0.143000
     52 H17          4.3120     1.4480    -1.7040 ha         1 7FE       0.143000
     53 H18          6.3000     1.4050    -3.1540 ha         1 7FE       0.171500
     54 H19          2.8560     0.0040     3.7760 h4         1 7FE       0.035100
     55 H20          5.2400     0.4600     3.5860 hc         1 7FE       0.050700
     56 H21          5.6720    -1.0160     2.7120 hc         1 7FE       0.050700
     57 H22          6.0200     0.5660     2.0020 hc         1 7FE       0.050700
     58 H23          8.7100     1.9640     2.5780 h1         1 7FE       0.045200
     59 H24         10.0830     3.1010     2.6110 h1         1 7FE       0.045200
     60 H25          8.1900     2.3570     4.8900 hc         1 7FE       0.050950
     61 H26          8.7080     3.9860     4.3590 hc         1 7FE       0.050950
     62 H27          9.9660     2.7940     6.4460 hc         1 7FE       0.050950
     63 H28         10.9220     3.6890     5.2310 hc         1 7FE       0.050950
     64 H29         10.6170     0.7280     5.6110 h1         1 7FE       0.045200
     65 H30         11.9890     1.6400     4.9450 h1         1 7FE       0.045200
     66 N1           8.4320    -0.1210    -2.8200 n          1 7FE      -0.367000
     67 O2           8.4970     1.7340    -6.4580 oh         1 7FE      -0.450100
@<TRIPOS>BOND
     1    32    31 1
     2    30    31 ar
     3    30     7 ar
     4    31    28 ar
     5    24    23 ar
     6    24    25 ar
     7     7    29 ar
     8    23    16 ar
     9    28    25 1
    10    28     5 ar
    11    25    26 ar
    12    12    11 ar
    13    12     2 ar
    14    29     5 ar
    15    29     1 1
    16    11     9 ar
    17    16    66 1
    18    16    27 ar
    19     3     2 1
    20    14    66 1
    21    14    15 1
    22    66    13 1
    23    26    27 ar
    24     2     4 ar
    25     9    13 1
    26     9     6 ar
    27    13     8 2
    28    17    15 ar
    29    17    18 ar
    30    15    21 ar
    31     4     6 ar
    32     6    67 1
    33    18    19 ar
    34    21    20 ar
    35    33    34 1
    36    33    10 1
    37    34    35 1
    38    19    20 ar
    39    19    22 1
    40    10    22 1
    41    10    36 1
    42    35    36 1
    43     3    37 1
    44     4    38 1
    45    67    39 1
    46    11    40 1
    47    12    41 1
    48    14    42 1
    49    14    43 1
    50    17    44 1
    51    18    45 1
    52    20    46 1
    53    21    47 1
    54    22    48 1
    55    22    49 1
    56    23    50 1
    57    24    51 1
    58    26    52 1
    59    27    53 1
    60    30    54 1
    61    32    55 1
    62    32    56 1
    63    32    57 1
    64    33    58 1
    65    33    59 1
    66    34    60 1
    67    34    61 1
    68    35    62 1
    69    35    63 1
    70    36    64 1
    71    36    65 1
@<TRIPOS>SUBSTRUCTURE
     1 7FE         1 TEMP              0 ****  ****    0 ROOT
