@<TRIPOS>MOLECULE
7FE
   67    71     1     0     0
SMALL
bcc


@<TRIPOS>ATOM
      1 Cl           0.0000     0.0000     0.0000 cl         1 7FE      -0.053000
      2 C1          12.0370     0.9380    -6.1620 ca         1 7FE       0.196100
      3 O1          13.1650     0.9740    -6.9150 oh         1 7FE      -0.501100
      4 C2          10.8310     1.3600    -6.7030 ca         1 7FE      -0.259000
      5 N2           2.6410     0.0000     0.0000 nb         1 7FE      -0.596000
      6 C3           9.6800     1.3240    -5.9350 ca         1 7FE       0.229100
      7 N3           1.6360     0.0020     2.0750 nb         1 7FE      -0.614000
      8 O3           7.4080     1.1020    -4.3670 o          1 7FE      -0.601100
      9 C4           9.7420     0.8600    -4.6120 ca         1 7FE      -0.222600
     10 N4          10.4320     1.2550     3.5820 n3         1 7FE      -0.543600
     11 C5          10.9660     0.4390    -4.0820 ca         1 7FE      -0.105000
     12 C6          12.0940     0.4740    -4.8510 ca         1 7FE      -0.183000
     13 C7           8.4250     0.5490    -3.9890 c          1 7FE       0.603700
     14 C8           9.6180    -0.8800    -2.4180 c3         1 7FE      -0.026700
     15 C9          10.1230    -0.3600    -1.0970 ca         1 7FE      -0.126300
     16 C10          7.3060    -0.0970    -1.9940 ca         1 7FE      -0.058400
     17 C11         10.1820     1.0020    -0.8670 ca         1 7FE      -0.093500
     18 C12         10.6450     1.4790     0.3450 ca         1 7FE      -0.084500
     19 C13         11.0510     0.5950     1.3270 ca         1 7FE      -0.082300
     20 C14         10.9910    -0.7670     1.0970 ca         1 7FE      -0.084500
     21 C15         10.5230    -1.2450    -0.1140 ca         1 7FE      -0.093500
     22 C16         11.5560     1.1150     2.6470 c3         1 7FE       0.210100
     23 C17          7.2440    -0.9260    -0.8800 ca         1 7FE      -0.167500
     24 C18          6.1340    -0.9040    -0.0630 ca         1 7FE      -0.051500
     25 C19          5.0710    -0.0500    -0.3560 cp         1 7FE      -0.187500
     26 C20          5.1350     0.7810    -1.4750 ca         1 7FE      -0.051500
     27 C21          6.2500     0.7600    -2.2850 ca         1 7FE      -0.167500
     28 C22          3.8550     0.0000     0.5480 cp         1 7FE       0.491800
     29 C23          1.5620     0.0000     0.7570 ca         1 7FE       0.602000
     30 C24          2.8080     0.0030     2.6930 ca         1 7FE       0.443200
     31 C25          3.9680     0.0020     1.9410 ca         1 7FE      -0.319900
     32 C26          5.3200     0.0030     2.6070 c3         1 7FE       0.063200
     33 C27          9.5320     2.3530     3.1680 c3         1 7FE       0.148300
     34 C28          9.0040     2.9530     4.4940 c3         1 7FE      -0.036400
     35 C29         10.2560     2.8520     5.4040 c3         1 7FE      -0.036400
     36 C30         10.9120     1.5320     4.9490 c3         1 7FE       0.148300
     37 H1          13.2690     0.1510    -7.3640 ho         1 7FE       0.409000
     38 H2          10.8020     1.7760    -7.7030 ha         1 7FE       0.128000
     39 H3           8.5640     1.7670    -7.3980 ho         1 7FE       0.395000
     40 H5          11.0180     0.0790    -3.0620 ha         1 7FE       0.182000
     41 H6          13.0390     0.1470    -4.4360 ha         1 7FE       0.121000
     42 H7          10.3900    -0.7680    -3.1690 h1         1 7FE       0.078200
     43 H8           9.3600    -1.9270    -2.3190 h1         1 7FE       0.078200
     44 H9           9.8650     1.6960    -1.6370 ha         1 7FE       0.112500
     45 H10         10.6920     2.5470     0.5240 ha         1 7FE       0.110500
     46 H11         11.3060    -1.4610     1.8670 ha         1 7FE       0.110500
     47 H12         10.4760    -2.3120    -0.2940 ha         1 7FE       0.112500
     48 H13         12.0250     2.0800     2.4990 h1         1 7FE       0.013700
     49 H14         12.2800     0.4200     3.0560 h1         1 7FE       0.013700
     50 H15          8.0700    -1.5900    -0.6530 ha         1 7FE       0.157500
     51 H16          6.0870    -1.5510     0.8050 ha         1 7FE       0.113500
     52 H17          4.3120     1.4480    -1.7040 ha         1 7FE       0.113500
     53 H18          6.3000     1.4050    -3.1540 ha         1 7FE       0.157500
     54 H19          2.8560     0.0040     3.7760 h4         1 7FE      -0.010900
     55 H20          5.2400     0.4600     3.5860 hc         1 7FE       0.017033
     56 H21          5.6720    -1.0160     2.7120 hc         1 7FE       0.017033
     57 H22          6.0200     0.5660     2.0020 hc         1 7FE       0.017033
     58 H23          8.7100     1.9640     2.5780 h1         1 7FE       0.016950
     59 H24         10.0830     3.1010     2.6110 h1         1 7FE       0.016950
     60 H25          8.1900     2.3570     4.8900 hc         1 7FE       0.020950
     61 H26          8.7080     3.9860     4.3590 hc         1 7FE       0.020950
     62 H27          9.9660     2.7940     6.4460 hc         1 7FE       0.020950
     63 H28         10.9220     3.6890     5.2310 hc         1 7FE       0.020950
     64 H29         10.6170     0.7280     5.6110 h1         1 7FE       0.016950
     65 H30         11.9890     1.6400     4.9450 h1         1 7FE       0.016950
     66 N1           8.4320    -0.1210    -2.8200 n          1 7FE       0.035000
     67 O2           8.4970     1.7340    -6.4580 oh         1 7FE      -0.426100
@<TRIPOS>BOND
     1     1    29 1   
     2     2     3 1   
     3     2     4 ar  
     4     2    12 ar  
     5     3    37 1   
     6     4     6 ar  
     7     4    38 1   
     8     5    28 ar  
     9     5    29 ar  
    10     6     9 ar  
    11     6    67 1   
    12     7    29 ar  
    13     7    30 ar  
    14     8    13 2   
    15     9    11 ar  
    16     9    13 1   
    17    10    22 1   
    18    10    33 1   
    19    10    36 1   
    20    11    12 ar  
    21    11    40 1   
    22    12    41 1   
    23    13    66 1   
    24    14    15 1   
    25    14    42 1   
    26    14    43 1   
    27    14    66 1   
    28    15    17 ar  
    29    15    21 ar  
    30    16    23 ar  
    31    16    27 ar  
    32    16    66 1   
    33    17    18 ar  
    34    17    44 1   
    35    18    19 ar  
    36    18    45 1   
    37    19    20 ar  
    38    19    22 1   
    39    20    21 ar  
    40    20    46 1   
    41    21    47 1   
    42    22    48 1   
    43    22    49 1   
    44    23    24 ar  
    45    23    50 1   
    46    24    25 ar  
    47    24    51 1   
    48    25    26 ar  
    49    25    28 1   
    50    26    27 ar  
    51    26    52 1   
    52    27    53 1   
    53    28    31 ar  
    54    30    31 ar  
    55    30    54 1   
    56    31    32 1   
    57    32    55 1   
    58    32    56 1   
    59    32    57 1   
    60    33    34 1   
    61    33    58 1   
    62    33    59 1   
    63    34    35 1   
    64    34    60 1   
    65    34    61 1   
    66    35    36 1   
    67    35    62 1   
    68    35    63 1   
    69    36    64 1   
    70    36    65 1   
    71    39    67 1   
@<TRIPOS>SUBSTRUCTURE
     1 7FE         1 TEMP              0 ****  ****    0 ROOT
