@<TRIPOS>MOLECULE
7FF
   29    30     1     0     0
SMALL
bcc


@<TRIPOS>ATOM
      1 N1           0.0000     0.0000     0.0000 n          1 7FF       0.037000
      2 C4          -0.0070     1.5010     1.9070 ca         1 7FF      -0.117300
      3 C5          -2.0370     1.0890     0.6840 ca         1 7FF      -0.146000
      4 C7          -0.7000     2.3460     2.7570 ca         1 7FF      -0.099000
      5 C8          -2.0580     2.5630     2.5730 ca         1 7FF       0.012600
      6 C10          1.4690     0.0000     0.0000 c3         1 7FF       0.029000
      7 N12         -2.7530     3.4170     3.4350 nv         1 7FF      -0.559200
      8 C13          1.4710     1.2920     2.1290 c3         1 7FF       0.038900
      9 C15         -0.8340    -2.4040    -2.6000 c3         1 7FF       0.285700
     10 C2          -0.6780     0.8700     0.8710 ca         1 7FF      -0.065400
     11 C3          -0.6860    -0.8150    -0.8250 c          1 7FF       0.685100
     12 O6          -1.8960    -0.8910    -0.7370 o          1 7FF      -0.647000
     13 O9          -0.0310    -1.5470    -1.7460 os         1 7FF      -0.427900
     14 C11         -2.7260     1.9320     1.5320 ca         1 7FF      -0.091000
     15 C14          1.9390     0.0000     1.4600 c3         1 7FF      -0.043400
     16 H1          -2.5570     0.5960    -0.1280 ha         1 7FF       0.181000
     17 H2          -0.1800     2.8390     3.5700 ha         1 7FF       0.109000
     18 H3           1.8240    -0.9010    -0.4860 h1         1 7FF       0.033700
     19 H4           1.8240     0.9010    -0.4860 h1         1 7FF       0.033700
     20 H5          -2.8190     4.3930     3.2260 hn         1 7FF       0.270300
     21 H6          -3.1750     3.0540     4.2660 hn         1 7FF       0.270300
     22 H7           2.0150     2.1280     1.7070 hc         1 7FF       0.022200
     23 H8           1.6660     1.2330     3.1930 hc         1 7FF       0.022200
     24 H9          -1.5280    -1.7980    -3.1700 h1         1 7FF       0.001033
     25 H10         -1.3870    -3.1070    -1.9890 h1         1 7FF       0.001033
     26 H11         -0.1870    -2.9460    -3.2790 h1         1 7FF       0.001033
     27 H12         -3.7870     2.1010     1.3860 ha         1 7FF       0.109000
     28 H13          1.4910    -0.8430     1.9730 hc         1 7FF       0.027200
     29 H14          3.0210    -0.0340     1.4810 hc         1 7FF       0.027200
@<TRIPOS>BOND
     1     1     6 1   
     2     1    10 1   
     3     1    11 1   
     4     2     4 ar  
     5     2     8 1   
     6     2    10 ar  
     7     3    10 ar  
     8     3    14 ar  
     9     3    16 1   
    10     4     5 ar  
    11     4    17 1   
    12     5     7 1   
    13     5    14 ar  
    14     6    15 1   
    15     6    18 1   
    16     6    19 1   
    17     7    20 1   
    18     7    21 1   
    19     8    15 1   
    20     8    22 1   
    21     8    23 1   
    22     9    13 1   
    23     9    24 1   
    24     9    25 1   
    25     9    26 1   
    26    11    12 2   
    27    11    13 1   
    28    14    27 1   
    29    15    28 1   
    30    15    29 1   
@<TRIPOS>SUBSTRUCTURE
     1 7FF         1 TEMP              0 ****  ****    0 ROOT
