@<TRIPOS>MOLECULE
molecule
   60    63     1     0     0
SMALL
bcc


@<TRIPOS>ATOM
      1 C01          0.0000     0.0000     0.0000 c3         1 7FG      -0.065400
      2 C02          1.5220     0.0000     0.0000 c3         1 7FG      -0.090400
      3 C03          2.1270     0.0000     1.3970 c3         1 7FG      -0.065400
      4 C04          1.5380    -1.0860     2.2940 c3         1 7FG      -0.032000
      5 C05          1.8700    -2.4850     1.7830 c3         1 7FG      -0.065400
      6 C06          1.2320    -2.7870     0.4350 c3         1 7FG      -0.090400
      7 C07         -0.2590    -2.4840     0.3900 c3         1 7FG      -0.065400
      8 C08         -0.5920    -1.0830     0.8990 c3         1 7FG      -0.032000
      9 C09          0.0260    -0.9310     2.2790 c2         1 7FG      -0.069400
     10 C10         -0.6940    -0.6840     3.3770 ce         1 7FG      -0.051400
     11 C11         -0.0190    -0.5470     4.6890 ca         1 7FG      -0.019800
     12 C12         -2.1670    -0.5450     3.2830 ca         1 7FG      -0.047800
     13 C13         -2.7250     0.5100     2.5630 ca         1 7FG      -0.105500
     14 C14         -4.0950     0.6320     2.4720 ca         1 7FG      -0.154000
     15 C15         -4.9200    -0.2930     3.0980 ca         1 7FG       0.104100
     16 C16         -4.3670    -1.3450     3.8170 ca         1 7FG      -0.154000
     17 C17         -2.9970    -1.4730     3.9110 ca         1 7FG      -0.105500
     18 C18         -0.0420     0.6760     5.3620 ca         1 7FG      -0.123000
     19 C19          0.5780     0.8030     6.5720 ca         1 7FG      -0.104500
     20 C20          1.2380    -0.2950     7.1380 ca         1 7FG      -0.088800
     21 C21          1.2590    -1.5210     6.4620 ca         1 7FG      -0.104500
     22 C22          0.6340    -1.6450     5.2550 ca         1 7FG      -0.123000
     23 O01         -6.2690    -0.1690     3.0080 oh         1 7FG      -0.523100
     24 H1          -0.3480     0.9660     0.3450 hc         1 7FG       0.041325
     25 H2          -0.3480    -0.1610    -1.0130 hc         1 7FG       0.041325
     26 H3           1.8670    -0.8820    -0.5260 hc         1 7FG       0.046450
     27 H4           3.1950    -0.1590     1.3130 hc         1 7FG       0.041325
     28 H5           1.9090    -0.9670     3.3050 hc         1 7FG       0.067200
     29 H6           2.9460    -2.5740     1.6860 hc         1 7FG       0.041325
     30 H7           1.5180    -3.2120     2.5060 hc         1 7FG       0.041325
     31 H8           1.3770    -3.8370     0.2120 hc         1 7FG       0.046450
     32 H9           1.7280    -2.1940    -0.3230 hc         1 7FG       0.046450
     33 H10         -0.6010    -2.5720    -0.6350 hc         1 7FG       0.041325
     34 H11         -0.7810    -3.2090     1.0010 hc         1 7FG       0.041325
     35 H12         -1.6660    -0.9610     0.9620 hc         1 7FG       0.067200
     36 H15         -2.0820     1.2320     2.0750 ha         1 7FG       0.138500
     37 H16         -4.5290     1.4520     1.9130 ha         1 7FG       0.140500
     38 H17         -5.0130    -2.0660     4.3050 ha         1 7FG       0.140500
     39 H18         -2.5670    -2.2940     4.4720 ha         1 7FG       0.138500
     40 H19         -0.5530     1.5250     4.9240 ha         1 7FG       0.139500
     41 H20          0.5600     1.7530     7.0930 ha         1 7FG       0.137000
     42 H22          1.7680    -2.3720     6.8990 ha         1 7FG       0.137000
     43 H23          0.6500    -2.5930     4.7320 ha         1 7FG       0.139500
     44 H24         -6.5850     0.3600     3.7220 ho         1 7FG       0.419000
     45 C1           1.9070    -0.1590     8.4400 ce         1 7FG      -0.015200
     46 C2           2.5430    -1.2190     8.9850 cf         1 7FG      -0.232200
     47 C3           3.2090    -1.0840    10.2800 c          1 7FG       0.640300
     48 O2           3.8430    -2.1430    10.8240 os         1 7FG      -0.424900
     49 O1           3.1890    -0.0200    10.8660 o          1 7FG      -0.560000
     50 C6           4.4720    -1.9400    12.0920 c3         1 7FG       0.145400
     51 C7           5.1360    -3.2420    12.5450 c3         1 7FG      -0.095100
     52 H25          1.8670     0.8820    -0.5260 hc         1 7FG       0.046450
     53 H26          1.9460     0.9650     1.8540 hc         1 7FG       0.041325
     54 H13          1.8900     0.7900     8.9620 ha         1 7FG       0.157000
     55 H14          2.5610    -2.1680     8.4640 ha         1 7FG       0.146000
     56 H21          5.2220    -1.1640    12.0030 h1         1 7FG       0.046700
     57 H27          3.7280    -1.6420    12.8200 h1         1 7FG       0.046700
     58 H28          4.3860    -4.0190    12.6340 hc         1 7FG       0.046367
     59 H29          5.6120    -3.0890    13.5060 hc         1 7FG       0.046367
     60 H30          5.8800    -3.5410    11.8170 hc         1 7FG       0.046367
@<TRIPOS>BOND
     1    23    15 1
     2    14    15 ar
     3    14    13 ar
     4    15    16 ar
     5    13    12 ar
     6    16    17 ar
     7    12    17 ar
     8    12    10 1
     9    22    21 ar
    10    22    11 ar
    11    10    11 1
    12    10     9 2
    13    21    20 ar
    14    11    18 ar
    15    20    19 ar
    16    18    19 ar
    17     9     8 1
    18     9     4 1
    19     8     7 1
    20     8     1 1
    21     7     6 1
    22     5     4 1
    23     5     6 1
    24     4     3 1
    25     1     2 1
    26     3     2 1
    27     1    24 1
    28     1    25 1
    29     2    26 1
    30     3    27 1
    31     4    28 1
    32     5    29 1
    33     5    30 1
    34     6    31 1
    35     6    32 1
    36     7    33 1
    37     7    34 1
    38     8    35 1
    39    13    36 1
    40    14    37 1
    41    16    38 1
    42    17    39 1
    43    18    40 1
    44    19    41 1
    45    21    42 1
    46    22    43 1
    47    23    44 1
    48    20    45 1
    49    45    46 2
    50    46    47 1
    51    47    48 1
    52    47    49 2
    53    48    50 1
    54    50    51 1
    55     2    52 1
    56     3    53 1
    57    45    54 1
    58    46    55 1
    59    50    56 1
    60    50    57 1
    61    51    58 1
    62    51    59 1
    63    51    60 1
@<TRIPOS>SUBSTRUCTURE
     1 7FG         1 TEMP              0 ****  ****    0 ROOT
