@<TRIPOS>MOLECULE
7FH
   16    16     1     0     0
SMALL
bcc


@<TRIPOS>ATOM
      1 S1           0.0000     0.0000     0.0000 s          1 7FH      -0.603400
      2 C1           1.7120     0.0000     0.0000 cs         1 7FH       0.203600
      3 C2           2.4140     0.0000     1.2160 cc         1 7FH      -0.111200
      4 C3           3.7770    -0.0000     1.2010 cd         1 7FH      -0.017000
      5 C4           4.4500    -0.0000    -0.0300 cd         1 7FH      -0.250200
      6 C6           5.9560    -0.0010    -0.0680 c3         1 7FH       0.651100
      7 F1           6.4250     1.3130     0.0360 f          1 7FH      -0.202633
      8 F2           6.4480    -0.7570     1.0010 f          1 7FH      -0.202633
      9 F3           6.3920    -0.5580    -1.2740 f          1 7FH      -0.202633
     10 C5           3.7430     0.0000    -1.1850 cc         1 7FH      -0.139400
     11 N1           2.3850    -0.0060    -1.1670 n          1 7FH       0.437500
     12 O1           1.6680    -0.0060    -2.3880 oh         1 7FH      -0.433100
     13 H1           1.8770     0.0000     2.1570 ha         1 7FH       0.157000
     14 H3           4.3350    -0.0000     2.1290 ha         1 7FH       0.131000
     15 H4           4.2660    -0.0020    -2.1340 h4         1 7FH       0.158000
     16 H6           1.6310     0.8720    -2.7310 ho         1 7FH       0.424000
@<TRIPOS>BOND
     1     1     2 2   
     2     2     3 1   
     3     2    11 1   
     4     3     4 2   
     5     3    13 1   
     6     4     5 1   
     7     4    14 1   
     8     5     6 1   
     9     5    10 2   
    10     6     7 1   
    11     6     8 1   
    12     6     9 1   
    13    10    11 1   
    14    10    15 1   
    15    11    12 1   
    16    12    16 1   
@<TRIPOS>SUBSTRUCTURE
     1 7FH         1 TEMP              0 ****  ****    0 ROOT
