@<TRIPOS>MOLECULE
molecule
   42    45     1     0     0
SMALL
bcc


@<TRIPOS>ATOM
      1 C01          0.0000     0.0000     0.0000 c3         1 7FJ       0.001600
      2 C02          1.5090     0.0000     0.0000 ca         1 7FJ      -0.092800
      3 C03          2.4050     0.0000     1.0580 ca         1 7FJ      -0.113000
      4 C04          3.7650     0.0020     0.8170 ca         1 7FJ      -0.127000
      5 C05          4.2350     0.0040    -0.4830 ca         1 7FJ      -0.127000
      6 C06          3.3430     0.0040    -1.5380 ca         1 7FJ      -0.113000
      7 C07          1.9780     0.0020    -1.2980 ca         1 7FJ      -0.092800
      8 C08          0.8180     0.0030    -2.2630 c3         1 7FJ       0.001600
      9 C09         -0.4490     0.0020    -1.4420 c2         1 7FJ      -0.087400
     10 C10         -1.7090     0.0020    -1.8970 ce         1 7FJ      -0.031400
     11 C11         -1.9690     0.0040    -3.3570 ca         1 7FJ      -0.050800
     12 C12         -1.5850     1.0960    -4.1340 ca         1 7FJ      -0.103750
     13 C13         -1.8290     1.0950    -5.4910 ca         1 7FJ      -0.153500
     14 C14         -2.4560     0.0080    -6.0840 ca         1 7FJ       0.104100
     15 O01         -2.6940     0.0100    -7.4220 oh         1 7FJ      -0.522600
     16 C15         -2.8390    -1.0820    -5.3140 ca         1 7FJ      -0.153500
     17 C16         -2.5930    -1.0890    -3.9570 ca         1 7FJ      -0.103750
     18 C17         -2.8420    -0.0010    -0.9420 ca         1 7FJ      -0.050800
     19 C18         -3.0450    -1.0930    -0.0990 ca         1 7FJ      -0.103750
     20 C19         -4.0990    -1.0920     0.7880 ca         1 7FJ      -0.153500
     21 C20         -4.9610    -0.0030     0.8440 ca         1 7FJ       0.104100
     22 O02         -5.9990    -0.0050     1.7200 oh         1 7FJ      -0.522600
     23 C21         -4.7620     1.0860     0.0060 ca         1 7FJ      -0.153500
     24 C22         -3.7060     1.0930    -0.8790 ca         1 7FJ      -0.103750
     25 H1          -0.3560     0.9010     0.4850 hc         1 7FJ       0.068450
     26 H2          -0.3560    -0.9020     0.4830 hc         1 7FJ       0.068450
     27 H3           2.0370    -0.0020     2.0770 ha         1 7FJ       0.129000
     28 H4           4.4620     0.0020     1.6460 ha         1 7FJ       0.131000
     29 H5           5.3010     0.0060    -0.6740 ha         1 7FJ       0.131000
     30 H6           3.7120     0.0060    -2.5570 ha         1 7FJ       0.129000
     31 H7           0.8550     0.8920    -2.8810 hc         1 7FJ       0.068450
     32 H8           0.8550    -0.8850    -2.8820 hc         1 7FJ       0.068450
     33 H11         -1.0960     1.9450    -3.6710 ha         1 7FJ       0.138250
     34 H12         -1.5310     1.9440    -6.0950 ha         1 7FJ       0.141000
     35 H13         -3.5410     0.3890    -7.5900 ho         1 7FJ       0.419000
     36 H14         -3.3260    -1.9300    -5.7800 ha         1 7FJ       0.141000
     37 H15         -2.8920    -1.9390    -3.3560 ha         1 7FJ       0.138250
     38 H16         -2.3730    -1.9420    -0.1420 ha         1 7FJ       0.138250
     39 H17         -4.2570    -1.9400     1.4430 ha         1 7FJ       0.141000
     40 H18         -6.7580    -0.3840     1.3070 ho         1 7FJ       0.419000
     41 H19         -5.4340     1.9340     0.0540 ha         1 7FJ       0.141000
     42 H20         -3.5520     1.9440    -1.5320 ha         1 7FJ       0.138250
@<TRIPOS>BOND
     1     4     5 ar  
     2     4     3 ar  
     3     5     6 ar  
     4     3     2 ar  
     5     6     7 ar  
     6     2     7 ar  
     7     2     1 1   
     8     7     8 1   
     9     1     9 1   
    10     8     9 1   
    11     9    10 2   
    12    12    13 ar  
    13    12    11 ar  
    14    10    11 1   
    15    10    18 1   
    16    13    14 ar  
    17    19    18 ar  
    18    19    20 ar  
    19    11    17 ar  
    20    18    24 ar  
    21    20    21 ar  
    22    14    15 1   
    23    14    16 ar  
    24    24    23 ar  
    25    17    16 ar  
    26    21    23 ar  
    27    21    22 1   
    28     1    25 1   
    29     1    26 1   
    30     3    27 1   
    31     4    28 1   
    32     5    29 1   
    33     6    30 1   
    34     8    31 1   
    35     8    32 1   
    36    12    33 1   
    37    13    34 1   
    38    15    35 1   
    39    16    36 1   
    40    17    37 1   
    41    19    38 1   
    42    20    39 1   
    43    22    40 1   
    44    23    41 1   
    45    24    42 1   
@<TRIPOS>SUBSTRUCTURE
     1 7FJ         1 TEMP              0 ****  ****    0 ROOT
