@<TRIPOS>MOLECULE
7FK
   53    54     1     0     0
SMALL
bcc


@<TRIPOS>ATOM
      1 O3          0.5440    1.5490   -0.6310 o         1 7FK     -0.395100
      2 C19         1.3210    0.6570   -0.3340 c         1 7FK      0.604700
      3 N           1.5550    0.4520    1.1690 n4        1 7FK     -0.594200
      4 C           2.2000    1.6480    1.7660 c3        1 7FK      0.084100
      5 C18         2.0750   -0.2490   -1.2060 ca        1 7FK     -0.276600
      6 C17         3.4740   -0.0920   -1.3160 ca        1 7FK      0.216100
      7 O2          4.0670    0.7660   -0.4230 oh        1 7FK     -0.533100
      8 C16         4.2090   -0.7850   -2.2750 ca        1 7FK     -0.242000
      9 C15         3.5350   -1.6680   -3.1350 ca        1 7FK      0.247100
     10 O1          4.3160   -2.2880   -4.0570 oh        1 7FK     -0.455100
     11 C14         2.1410   -1.8840   -2.9950 ca        1 7FK     -0.105600
     12 CL          1.3770   -2.9970   -4.0250 cl        1 7FK     -0.037400
     13 C13         1.4110   -1.1840   -2.0300 ca        1 7FK      0.088700
     14 C12        -0.0340   -1.4750   -1.8120 c3        1 7FK     -0.174100
     15 C11        -1.0020   -0.6680   -2.6450 c         1 7FK      0.568100
     16 O          -0.6300    0.2060   -3.4280 o         1 7FK     -0.490100
     17 C10        -2.4540   -1.0240   -2.4770 c3        1 7FK     -0.184400
     18 C9         -2.8970   -1.2490   -1.0460 c3        1 7FK     -0.072400
     19 C8         -2.9540   -2.7190   -0.6750 c3        1 7FK     -0.087400
     20 C7         -2.9550   -2.9410    0.8260 c3        1 7FK     -0.085400
     21 C6         -1.5550   -3.1760    1.3560 c3        1 7FK     -0.067400
     22 C5         -1.5040   -3.2790    2.8680 c3        1 7FK     -0.068200
     23 C4         -1.7910   -1.9990    3.5590 c2        1 7FK     -0.103200
     24 C3         -0.9890   -0.9330    3.6370 c2        1 7FK     -0.218200
     25 C2          0.3550   -0.8060    3.0210 c3        1 7FK     -0.057200
     26 C1          0.2470    0.1630    1.8450 c3        1 7FK      0.103800
     27 HC1         3.2260    1.7790    1.3250 hx        1 7FK      0.106700
     28 HC2         2.2800    1.5090    2.8770 hx        1 7FK      0.106700
     29 HC3         1.5790    2.5560    1.5400 hx        1 7FK      0.106700
     30 H11C       -0.1930    1.1420    2.1910 hx        1 7FK      0.104700
     31 H12C       -0.4570   -0.2710    1.0760 hx        1 7FK      0.104700
     32 H2          4.9920    0.9070   -0.6890 ho        1 7FK      0.465000
     33 H16         5.2960   -0.6480   -2.3820 ha        1 7FK      0.186000
     34 H1          3.7640   -2.8500   -4.6320 ho        1 7FK      0.458000
     35 H121       -0.2350   -2.5640   -2.0220 hc        1 7FK      0.085700
     36 H122       -0.2850   -1.3070   -0.7290 hc        1 7FK      0.085700
     37 H101       -2.6480   -1.9440   -3.0940 hc        1 7FK      0.089200
     38 H102       -3.0640   -0.1940   -2.9300 hc        1 7FK      0.089200
     39 H91C       -3.9230   -0.8080   -0.9140 hc        1 7FK      0.043700
     40 H92C       -2.2260   -0.6960   -0.3370 hc        1 7FK      0.043700
     41 H81C       -3.8860   -3.1640   -1.1160 hc        1 7FK      0.048200
     42 H82C       -2.0880   -3.2650   -1.1350 hc        1 7FK      0.048200
     43 H71C       -3.5880   -3.8360    1.0670 hc        1 7FK      0.055200
     44 H72C       -3.4170   -2.0630    1.3480 hc        1 7FK      0.055200
     45 H61C       -1.1510   -4.1280    0.9190 hc        1 7FK      0.028200
     46 H62C       -0.8810   -2.3440    1.0180 hc        1 7FK      0.028200
     47 H51C       -2.2440   -4.0560    3.2040 hc        1 7FK      0.062700
     48 H52C       -0.4850   -3.6480    3.1710 hc        1 7FK      0.062700
     49 H4         -2.7710   -1.9630    4.0730 ha        1 7FK      0.143000
     50 H3         -1.3090   -0.0470    4.2130 ha        1 7FK      0.138000
     51 H21C        1.0790   -0.4140    3.7860 hc        1 7FK      0.065700
     52 H22C        0.7330   -1.8040    2.6690 hc        1 7FK      0.065700
     53 HN1         2.1830   -0.3520    1.2830 hn        1 7FK      0.454800
@<TRIPOS>BOND
     1    1    2 2
     2    2    3 1
     3    2    5 1
     4    3    4 1
     5    3   26 1
     6    3   53 1
     7    4   27 1
     8    4   28 1
     9    4   29 1
    10    5    6 ar
    11    5   13 ar
    12    6    7 1
    13    6    8 ar
    14    7   32 1
    15    8    9 ar
    16    8   33 1
    17    9   10 1
    18    9   11 ar
    19   10   34 1
    20   11   12 1
    21   11   13 ar
    22   13   14 1
    23   14   15 1
    24   14   35 1
    25   14   36 1
    26   15   16 2
    27   15   17 1
    28   17   18 1
    29   17   37 1
    30   17   38 1
    31   18   19 1
    32   18   39 1
    33   18   40 1
    34   19   20 1
    35   19   41 1
    36   19   42 1
    37   20   21 1
    38   20   43 1
    39   20   44 1
    40   21   22 1
    41   21   45 1
    42   21   46 1
    43   22   23 1
    44   22   47 1
    45   22   48 1
    46   23   24 2
    47   23   49 1
    48   24   25 1
    49   24   50 1
    50   25   26 1
    51   25   51 1
    52   25   52 1
    53   26   30 1
    54   26   31 1
@<TRIPOS>SUBSTRUCTURE
     1 7FK         1 TEMP              0 ****  ****    0 ROOT
