@<TRIPOS>MOLECULE
molecule
   44    46     1     0     0
SMALL
bcc


@<TRIPOS>ATOM
      1 O01          0.0000     0.0000     0.0000 oh         1 7FL      -0.523100
      2 C02          1.3590     0.0000     0.0000 ca         1 7FL       0.102100
      3 C03          2.0520     0.0000     1.2030 ca         1 7FL      -0.153250
      4 C04          3.4310    -0.0010     1.2060 ca         1 7FL      -0.106500
      5 C05          4.1290    -0.0030    -0.0010 ca         1 7FL      -0.047300
      6 C06          5.6120    -0.0040    -0.0010 ce         1 7FL      -0.054400
      7 C07          6.3540     1.1600     0.5410 ca         1 7FL      -0.047300
      8 C08          6.2630     2.4010    -0.0880 ca         1 7FL      -0.106500
      9 C09          6.9550     3.4810     0.4180 ca         1 7FL      -0.153250
     10 C10          7.7420     3.3330     1.5520 ca         1 7FL       0.102100
     11 O11          8.4220     4.4000     2.0480 oh         1 7FL      -0.523100
     12 C12          7.8350     2.0990     2.1810 ca         1 7FL      -0.153250
     13 C13          7.1400     1.0160     1.6830 ca         1 7FL      -0.106500
     14 C14          6.2800    -1.0560    -0.4890 c2         1 7FL      -0.076400
     15 C15          7.7690    -1.0260    -0.4750 c3         1 7FL      -0.050200
     16 C16          8.2920    -0.4130    -1.8000 c3         1 7FL      -0.072900
     17 C17          8.0370    -1.3400    -2.9150 c3         1 7FL      -0.079900
     18 C18          6.5670    -1.6150    -3.1960 c3         1 7FL      -0.079900
     19 C19          6.1050    -2.7700    -2.3410 c3         1 7FL      -0.072900
     20 C20          5.4890    -2.2340    -1.0300 c3         1 7FL      -0.050200
     21 C21          3.4310    -0.0040    -1.2070 ca         1 7FL      -0.106500
     22 C22          2.0510    -0.0080    -1.2030 ca         1 7FL      -0.153250
     23 H1          -0.3140     0.8890    -0.0020 ho         1 7FL       0.418500
     24 H2           1.5080     0.0020     2.1400 ha         1 7FL       0.140250
     25 H3           3.9710    -0.0010     2.1450 ha         1 7FL       0.138500
     26 H5           5.6490     2.5170    -0.9730 ha         1 7FL       0.138500
     27 H6           6.8850     4.4460    -0.0700 ha         1 7FL       0.140250
     28 H7           9.2780     4.4390     1.6540 ho         1 7FL       0.418500
     29 H8           8.4480     1.9870     3.0670 ha         1 7FL       0.140250
     30 H9           7.2130     0.0530     2.1740 ha         1 7FL       0.138500
     31 H11          8.1080    -0.4220     0.3580 hc         1 7FL       0.055950
     32 H12          8.1480    -2.0350    -0.3720 hc         1 7FL       0.055950
     33 H13          7.7800     0.5230    -1.9880 hc         1 7FL       0.043700
     34 H14          9.3570    -0.2370    -1.7170 hc         1 7FL       0.043700
     35 H15          8.5230    -2.2820    -2.6920 hc         1 7FL       0.040200
     36 H16          8.4820    -0.9240    -3.8110 hc         1 7FL       0.040200
     37 H17          6.4410    -1.8670    -4.2420 hc         1 7FL       0.040200
     38 H18          5.9830    -0.7340    -2.9570 hc         1 7FL       0.040200
     39 H19          5.3590    -3.3410    -2.8810 hc         1 7FL       0.043700
     40 H20          6.9520    -3.4050    -2.1070 hc         1 7FL       0.043700
     41 H21          4.4710    -1.9170    -1.2220 hc         1 7FL       0.055950
     42 H22          5.4860    -3.0260    -0.2910 hc         1 7FL       0.055950
     43 H23          3.9700    -0.0080    -2.1460 ha         1 7FL       0.138500
     44 H24          1.5080    -0.0090    -2.1400 ha         1 7FL       0.140250
@<TRIPOS>BOND
     1     1     2 1   
     2     3     2 ar  
     3     3     4 ar  
     4     2    22 ar  
     5    12    13 ar  
     6    12    10 ar  
     7    13     7 ar  
     8     4     5 ar  
     9    11    10 1   
    10    22    21 ar  
    11    10     9 ar  
    12     5    21 ar  
    13     5     6 1   
    14     7     6 1   
    15     7     8 ar  
    16     6    14 2   
    17     9     8 ar  
    18    14    15 1   
    19    14    20 1   
    20    16    15 1   
    21    16    17 1   
    22    20    19 1   
    23    17    18 1   
    24    18    19 1   
    25     1    23 1   
    26     3    24 1   
    27     4    25 1   
    28     8    26 1   
    29     9    27 1   
    30    11    28 1   
    31    12    29 1   
    32    13    30 1   
    33    15    31 1   
    34    15    32 1   
    35    16    33 1   
    36    16    34 1   
    37    17    35 1   
    38    17    36 1   
    39    18    37 1   
    40    18    38 1   
    41    19    39 1   
    42    19    40 1   
    43    20    41 1   
    44    20    42 1   
    45    21    43 1   
    46    22    44 1   
@<TRIPOS>SUBSTRUCTURE
     1 7FL         1 TEMP              0 ****  ****    0 ROOT
