@<TRIPOS>MOLECULE
molecule
   51    55     1     0     0
SMALL
bcc


@<TRIPOS>ATOM
      1 C01          0.0000     0.0000     0.0000 ce         1 7FO      -0.085400
      2 C02          1.5310     0.0000     0.0000 c3         1 7FO       0.173300
      3 C03          1.9380     0.0000     1.5060 c3         1 7FO      -0.074400
      4 C04          1.5110     1.4230     1.9550 c3         1 7FO      -0.270900
      5 C05         -0.3730     1.2430     0.3920 cf         1 7FO      -0.082400
      6 C06          0.9270     2.0160     0.6350 c3         1 7FO       0.197300
      7 O01          1.8040     1.3950    -0.3650 os         1 7FO      -0.377600
      8 C07         -1.7480     1.7500     0.5450 ca         1 7FO      -0.052800
      9 C08         -0.8870    -1.1210    -0.3580 ca         1 7FO      -0.049800
     10 C09         -0.9100    -2.2770     0.4270 ca         1 7FO      -0.098500
     11 C10         -1.7420    -3.3210     0.0880 ca         1 7FO      -0.152500
     12 C11         -2.5570    -3.2280    -1.0320 ca         1 7FO       0.110100
     13 C12         -2.5370    -2.0820    -1.8170 ca         1 7FO      -0.152500
     14 C13         -1.7130    -1.0300    -1.4830 ca         1 7FO      -0.098500
     15 C14         -2.5910     1.2070     1.5200 ca         1 7FO      -0.097000
     16 C15         -3.8760     1.6840     1.6590 ca         1 7FO      -0.153500
     17 C16         -4.3340     2.7030     0.8340 ca         1 7FO       0.112100
     18 C17         -3.5010     3.2460    -0.1350 ca         1 7FO      -0.153500
     19 C18         -2.2120     2.7800    -0.2780 ca         1 7FO      -0.097000
     20 O02         -5.6020     3.1700     0.9750 oh         1 7FO      -0.521100
     21 O03         -3.3750    -4.2610    -1.3640 oh         1 7FO      -0.521100
     22 C19          2.8000     1.6290     4.8100 ca         1 7FO       0.104100
     23 C20          1.7950     0.7030     5.0500 ca         1 7FO      -0.122000
     24 C21          1.0640     0.7670     6.2200 ca         1 7FO      -0.084500
     25 C22          1.3320     1.7540     7.1520 ca         1 7FO       0.059900
     26 C23          2.3340     2.6780     6.9140 ca         1 7FO      -0.084500
     27 C24          3.0680     2.6170     5.7450 ca         1 7FO      -0.122000
     28 I01          0.2210     1.8480     8.9250 i          1 7FO      -0.149900
     29 S01          2.9440     2.3820     2.5170 s6         1 7FO       1.455500
     30 O05          3.9660     2.3770     1.5300 o          1 7FO      -0.610800
     31 O06          2.5240     3.5930     3.1300 o          1 7FO      -0.610800
     32 O04          3.5240     1.5630     3.6620 os         1 7FO      -0.452800
     33 H2           2.0070    -0.7490    -0.6220 h1         1 7FO       0.117700
     34 H3           3.0070    -0.1350     1.6170 hc         1 7FO       0.065700
     35 H4           1.3910    -0.7580     2.0540 hc         1 7FO       0.065700
     36 H5           0.7510     1.3730     2.7250 h1         1 7FO       0.114700
     37 H7           0.8540     3.0960     0.5890 h1         1 7FO       0.116700
     38 H8          -0.2750    -2.3510     1.3020 ha         1 7FO       0.137500
     39 H9          -1.7600    -4.2170     0.6970 ha         1 7FO       0.143000
     40 H10         -3.1760    -2.0120    -2.6890 ha         1 7FO       0.143000
     41 H11         -1.6990    -0.1360    -2.0950 ha         1 7FO       0.137500
     42 H12         -2.2340     0.4120     2.1640 ha         1 7FO       0.139000
     43 H13         -4.5300     1.2640     2.4140 ha         1 7FO       0.144000
     44 H14         -3.8620     4.0430    -0.7740 ha         1 7FO       0.144000
     45 H15         -1.5620     3.2050    -1.0340 ha         1 7FO       0.139000
     46 H16         -6.1830     2.6740     0.4220 ho         1 7FO       0.421000
     47 H17         -4.2100    -4.1490    -0.9410 ho         1 7FO       0.420000
     48 H18          1.5840    -0.0700     4.3210 ha         1 7FO       0.154000
     49 H19          0.2790     0.0450     6.4080 ha         1 7FO       0.152500
     50 H20          2.5430     3.4490     7.6450 ha         1 7FO       0.152500
     51 H21          3.8520     3.3410     5.5590 ha         1 7FO       0.154000
@<TRIPOS>BOND
     1    31    29 2   
     2    27    26 ar  
     3    27    22 ar  
     4    26    25 ar  
     5    30    29 2   
     6    29    32 1   
     7    29     4 1   
     8    32    22 1   
     9    22    23 ar  
    10    25    28 1   
    11    25    24 ar  
    12     3     4 1   
    13     3     2 1   
    14     4     6 1   
    15    23    24 ar  
    16     2     7 1   
    17     2     1 1   
    18     6     7 1   
    19     6     5 1   
    20    10    11 ar  
    21    10     9 ar  
    22    11    12 ar  
    23     1     5 2   
    24     1     9 1   
    25     5     8 1   
    26     9    14 ar  
    27    19     8 ar  
    28    19    18 ar  
    29     8    15 ar  
    30    18    17 ar  
    31    12    21 1   
    32    12    13 ar  
    33    15    16 ar  
    34    14    13 ar  
    35    17    16 ar  
    36    17    20 1   
    37     2    33 1   
    38     3    34 1   
    39     3    35 1   
    40     4    36 1   
    41     6    37 1   
    42    10    38 1   
    43    11    39 1   
    44    13    40 1   
    45    14    41 1   
    46    15    42 1   
    47    16    43 1   
    48    18    44 1   
    49    19    45 1   
    50    20    46 1   
    51    21    47 1   
    52    23    48 1   
    53    24    49 1   
    54    26    50 1   
    55    27    51 1   
@<TRIPOS>SUBSTRUCTURE
     1 7FO         1 TEMP              0 ****  ****    0 ROOT
