@<TRIPOS>MOLECULE
7FP
   58    62     1     0     0
SMALL
bcc


@<TRIPOS>ATOM
      1 C01          0.0000     0.0000     0.0000 ce         1 7FP      -0.090400
      2 C02          1.5320     0.0000     0.0000 c3         1 7FP       0.232300
      3 C03          1.9380     0.0000     1.5060 c3         1 7FP      -0.016400
      4 C04          1.5110     1.4230     1.9540 c3         1 7FP      -0.110900
      5 C05         -0.3740     1.2430     0.3920 cf         1 7FP      -0.101400
      6 C06          0.9270     2.0160     0.6350 c3         1 7FP       0.271300
      7 O01          1.8030     1.3950    -0.3650 os         1 7FP      -0.378600
      8 C07         -1.7480     1.7490     0.5500 ca         1 7FP      -0.049800
      9 C08         -0.8870    -1.1210    -0.3590 ca         1 7FP      -0.050800
     10 C09         -1.7130    -1.0300    -1.4830 ca         1 7FP      -0.068000
     11 C10         -2.5400    -2.0810    -1.8140 ca         1 7FP      -0.136500
     12 C11         -2.5550    -3.2280    -1.0320 ca         1 7FP       0.128100
     13 C12         -1.7370    -3.3240     0.0850 ca         1 7FP      -0.136500
     14 C13         -0.9010    -2.2810     0.4210 ca         1 7FP      -0.068000
     15 C14         -2.5870     1.2050     1.5280 ca         1 7FP      -0.066500
     16 C15         -3.8720     1.6810     1.6720 ca         1 7FP      -0.137500
     17 C16         -4.3350     2.6990     0.8480 ca         1 7FP       0.129100
     18 C17         -3.5060     3.2410    -0.1250 ca         1 7FP      -0.137500
     19 C18         -2.2170     2.7760    -0.2720 ca         1 7FP      -0.066500
     20 O02         -5.6030     3.1630     0.9930 oh         1 7FP      -0.500100
     21 O03         -3.3770    -4.2600    -1.3610 oh         1 7FP      -0.501100
     22 C19          2.7440     1.6990     4.8270 ca         1 7FP       0.120100
     23 C20          1.7800     0.7450     5.1140 ca         1 7FP      -0.100000
     24 C21          1.0240     0.8500     6.2650 ca         1 7FP      -0.098500
     25 C22          1.2290     1.9100     7.1360 ca         1 7FP      -0.095400
     26 C23          2.1960     2.8660     6.8490 ca         1 7FP      -0.098500
     27 C24          2.9510     2.7610     5.6970 ca         1 7FP      -0.100000
     28 N01          0.4630     2.0180     8.3040 ns         1 7FP      -0.040100
     29 C25          0.0870     0.9070     8.9670 c          1 7FP       0.561100
     30 C26         -0.6430     1.0250    10.2800 c3         1 7FP      -0.067100
     31 O05          0.3380    -0.1870     8.5080 o          1 7FP      -0.635100
     32 S01          2.9450     2.3830     2.5160 s6         1 7FP       1.206500
     33 O06          3.9860     2.3350     1.5510 o          1 7FP      -0.587800
     34 O07          2.5270     3.6160     3.0830 o          1 7FP      -0.587800
     35 O04          3.4910     1.5930     3.6970 os         1 7FP      -0.363800
     36 H2           2.0070    -0.7490    -0.6220 h1         1 7FP       0.063700
     37 H3           3.0070    -0.1350     1.6170 hc         1 7FP       0.036200
     38 H4           1.3920    -0.7580     2.0540 hc         1 7FP       0.036200
     39 H5           0.7510     1.3730     2.7250 h1         1 7FP       0.092700
     40 H7           0.8540     3.0960     0.5890 h1         1 7FP       0.067700
     41 H8          -1.7020    -0.1350    -2.0930 ha         1 7FP       0.108500
     42 H9          -3.1810    -2.0110    -2.6850 ha         1 7FP       0.116000
     43 H10         -1.7500    -4.2230     0.6900 ha         1 7FP       0.116000
     44 H11         -0.2620    -2.3570     1.2930 ha         1 7FP       0.108500
     45 H12         -2.2270     0.4110     2.1710 ha         1 7FP       0.109000
     46 H13         -4.5220     1.2600     2.4290 ha         1 7FP       0.115500
     47 H14         -3.8700     4.0370    -0.7640 ha         1 7FP       0.115500
     48 H15         -1.5710     3.2000    -1.0320 ha         1 7FP       0.109000
     49 H16         -5.6150     3.8450     1.6440 ho         1 7FP       0.403000
     50 H17         -2.9200    -4.8580    -1.9270 ho         1 7FP       0.403000
     51 H18          1.6190    -0.0830     4.4340 ha         1 7FP       0.121000
     52 H19          0.2700     0.1040     6.4880 ha         1 7FP       0.128500
     53 H20          2.3570     3.6940     7.5280 ha         1 7FP       0.128500
     54 H21          3.7040     3.5060     5.4740 ha         1 7FP       0.121000
     55 H22          0.1640     2.9180     8.6250 hn         1 7FP       0.170500
     56 H23         -1.4520     1.7380    10.1800 hc         1 7FP       0.025033
     57 H24         -1.0450     0.0580    10.5580 hc         1 7FP       0.025033
     58 H25          0.0440     1.3640    11.0460 hc         1 7FP       0.025033
@<TRIPOS>BOND
     1     1     2 1   
     2     1     5 2   
     3     1     9 1   
     4     2     3 1   
     5     2     7 1   
     6     2    36 1   
     7     3     4 1   
     8     3    37 1   
     9     3    38 1   
    10     4     6 1   
    11     4    32 1   
    12     4    39 1   
    13     5     6 1   
    14     5     8 1   
    15     6     7 1   
    16     6    40 1   
    17     8    15 ar  
    18     8    19 ar  
    19     9    10 ar  
    20     9    14 ar  
    21    10    11 ar  
    22    10    41 1   
    23    11    12 ar  
    24    11    42 1   
    25    12    13 ar  
    26    12    21 1   
    27    13    14 ar  
    28    13    43 1   
    29    14    44 1   
    30    15    16 ar  
    31    15    45 1   
    32    16    17 ar  
    33    16    46 1   
    34    17    18 ar  
    35    17    20 1   
    36    18    19 ar  
    37    18    47 1   
    38    19    48 1   
    39    20    49 1   
    40    21    50 1   
    41    22    23 ar  
    42    22    27 ar  
    43    22    35 1   
    44    23    24 ar  
    45    23    51 1   
    46    24    25 ar  
    47    24    52 1   
    48    25    26 ar  
    49    25    28 1   
    50    26    27 ar  
    51    26    53 1   
    52    27    54 1   
    53    28    29 1   
    54    28    55 1   
    55    29    30 1   
    56    29    31 2   
    57    30    56 1   
    58    30    57 1   
    59    30    58 1   
    60    32    33 2   
    61    32    34 2   
    62    32    35 1   
@<TRIPOS>SUBSTRUCTURE
     1 7FP         1 TEMP              0 ****  ****    0 ROOT
