@<TRIPOS>MOLECULE
molecule
   58    62     1     0     0
SMALL
bcc


@<TRIPOS>ATOM
      1 C01          0.0000     0.0000     0.0000 ce         1 7FP      -0.084400
      2 C02          1.5320     0.0000     0.0000 c3         1 7FP       0.172300
      3 C03          1.9380     0.0000     1.5060 c3         1 7FP      -0.072400
      4 C04          1.5110     1.4230     1.9540 c3         1 7FP      -0.268900
      5 C05         -0.3740     1.2430     0.3920 cf         1 7FP      -0.083400
      6 C06          0.9270     2.0160     0.6350 c3         1 7FP       0.195300
      7 O01          1.8030     1.3950    -0.3650 os         1 7FP      -0.379600
      8 C07         -1.7480     1.7490     0.5500 ca         1 7FP      -0.051800
      9 C08         -0.8870    -1.1210    -0.3590 ca         1 7FP      -0.050800
     10 C09         -1.7130    -1.0300    -1.4830 ca         1 7FP      -0.098000
     11 C10         -2.5400    -2.0810    -1.8140 ca         1 7FP      -0.152000
     12 C11         -2.5550    -3.2280    -1.0320 ca         1 7FP       0.110100
     13 C12         -1.7370    -3.3240     0.0850 ca         1 7FP      -0.152000
     14 C13         -0.9010    -2.2810     0.4210 ca         1 7FP      -0.098000
     15 C14         -2.5870     1.2050     1.5280 ca         1 7FP      -0.096500
     16 C15         -3.8720     1.6810     1.6720 ca         1 7FP      -0.153500
     17 C16         -4.3350     2.6990     0.8480 ca         1 7FP       0.111100
     18 C17         -3.5060     3.2410    -0.1250 ca         1 7FP      -0.153500
     19 C18         -2.2170     2.7760    -0.2720 ca         1 7FP      -0.096500
     20 O02         -5.6030     3.1630     0.9930 oh         1 7FP      -0.521100
     21 O03         -3.3770    -4.2600    -1.3610 oh         1 7FP      -0.522100
     22 C19          2.7440     1.6990     4.8270 ca         1 7FP       0.065100
     23 C20          1.7800     0.7450     5.1140 ca         1 7FP      -0.100000
     24 C21          1.0240     0.8500     6.2650 ca         1 7FP      -0.135000
     25 C22          1.2290     1.9100     7.1360 ca         1 7FP       0.069600
     26 C23          2.1960     2.8660     6.8490 ca         1 7FP      -0.135000
     27 C24          2.9510     2.7610     5.6970 ca         1 7FP      -0.100000
     28 N01          0.4630     2.0180     8.3040 ns         1 7FP      -0.483100
     29 C25          0.0870     0.9070     8.9670 c          1 7FP       0.659100
     30 C26         -0.6430     1.0250    10.2800 c3         1 7FP      -0.170100
     31 O05          0.3380    -0.1870     8.5080 o          1 7FP      -0.592100
     32 S01          2.9450     2.3830     2.5160 s6         1 7FP       1.457500
     33 O06          3.9860     2.3350     1.5510 o          1 7FP      -0.617300
     34 O07          2.5270     3.6160     3.0830 o          1 7FP      -0.617300
     35 O04          3.4910     1.5930     3.6970 os         1 7FP      -0.448800
     36 H2           2.0070    -0.7490    -0.6220 h1         1 7FP       0.115700
     37 H3           3.0070    -0.1350     1.6170 hc         1 7FP       0.066700
     38 H4           1.3920    -0.7580     2.0540 hc         1 7FP       0.066700
     39 H5           0.7510     1.3730     2.7250 h1         1 7FP       0.114700
     40 H7           0.8540     3.0960     0.5890 h1         1 7FP       0.114700
     41 H8          -1.7020    -0.1350    -2.0930 ha         1 7FP       0.138000
     42 H9          -3.1810    -2.0110    -2.6850 ha         1 7FP       0.143500
     43 H10         -1.7500    -4.2230     0.6900 ha         1 7FP       0.143500
     44 H11         -0.2620    -2.3570     1.2930 ha         1 7FP       0.138000
     45 H12         -2.2270     0.4110     2.1710 ha         1 7FP       0.139500
     46 H13         -4.5220     1.2600     2.4290 ha         1 7FP       0.143500
     47 H14         -3.8700     4.0370    -0.7640 ha         1 7FP       0.143500
     48 H15         -1.5710     3.2000    -1.0320 ha         1 7FP       0.139500
     49 H16         -5.6150     3.8450     1.6440 ho         1 7FP       0.420000
     50 H17         -2.9200    -4.8580    -1.9270 ho         1 7FP       0.420000
     51 H18          1.6190    -0.0830     4.4340 ha         1 7FP       0.152000
     52 H19          0.2700     0.1040     6.4880 ha         1 7FP       0.158500
     53 H20          2.3570     3.6940     7.5280 ha         1 7FP       0.158500
     54 H21          3.7040     3.5060     5.4740 ha         1 7FP       0.152000
     55 H22          0.1640     2.9180     8.6250 hn         1 7FP       0.329500
     56 H23         -1.4520     1.7380    10.1800 hc         1 7FP       0.065367
     57 H24         -1.0450     0.0580    10.5580 hc         1 7FP       0.065367
     58 H25          0.0440     1.3640    11.0460 hc         1 7FP       0.065367
@<TRIPOS>BOND
     1    21    12 1
     2    12    13 ar
     3    12    11 ar
     4    13    14 ar
     5    11    10 ar
     6    14     9 ar
     7    10     9 ar
     8     9     1 1
     9     1     5 2
    10     1     2 1
    11    20    17 1
    12    18    17 ar
    13    18    19 ar
    14    17    16 ar
    15    19     8 ar
    16    16    15 ar
    17     8    15 ar
    18     8     5 1
    19     5     6 1
    20     2     7 1
    21     2     3 1
    22     7     6 1
    23     6     4 1
    24     3     4 1
    25     4    32 1
    26    34    32 2
    27    32    35 1
    28    32    33 2
    29    35    22 1
    30    27    22 ar
    31    27    26 ar
    32    22    23 ar
    33    26    25 ar
    34    23    24 ar
    35    25    24 ar
    36    25    28 1
    37    28    29 1
    38    30    29 1
    39    29    31 2
    40     2    36 1
    41     3    37 1
    42     3    38 1
    43     4    39 1
    44     6    40 1
    45    10    41 1
    46    11    42 1
    47    13    43 1
    48    14    44 1
    49    15    45 1
    50    16    46 1
    51    18    47 1
    52    19    48 1
    53    20    49 1
    54    21    50 1
    55    23    51 1
    56    24    52 1
    57    26    53 1
    58    27    54 1
    59    28    55 1
    60    30    56 1
    61    30    57 1
    62    30    58 1
@<TRIPOS>SUBSTRUCTURE
     1 7FP         1 TEMP              0 ****  ****    0 ROOT
