@<TRIPOS>MOLECULE
molecule
   61    65     1     0     0
SMALL
bcc


@<TRIPOS>ATOM
      1 C01          0.0000     0.0000     0.0000 ca         1 7FQ      -0.153000
      2 C02          1.3880     0.0000     0.0000 ca         1 7FQ       0.102100
      3 C03          2.0740     0.0000     1.2020 ca         1 7FQ      -0.156000
      4 C04          1.3860     0.0030     2.4090 ca         1 7FQ      -0.059300
      5 C05          0.0060     0.0110     2.4030 ca         1 7FQ      -0.076300
      6 C06         -0.6820     0.0050     1.1970 ca         1 7FQ      -0.118000
      7 C07          2.1980    -0.0100     3.6760 c3         1 7FQ      -0.033100
      8 C08          1.3430     0.3510     4.8890 c3         1 7FQ      -0.075400
      9 C09          0.0640    -0.4860     4.8400 c3         1 7FQ      -0.057700
     10 C10         -0.7910     0.0320     3.6760 c3         1 7FQ      -0.019400
     11 C11         -0.7600    -0.3300     6.1010 c3         1 7FQ      -0.068700
     12 C12         -1.9800    -1.2810     5.9510 c3         1 7FQ      -0.083000
     13 C13         -2.8790    -0.7230     4.8660 c3         1 7FQ      -0.064400
     14 C14         -2.0880    -0.7530     3.5440 c3         1 7FQ      -0.075400
     15 C15         -0.1200    -0.8530     7.3920 c3         1 7FQ      -0.069400
     16 C16         -1.3490    -1.1190     8.3050 c3         1 7FQ      -0.076700
     17 C17         -2.5560    -1.3390     7.3600 c3         1 7FQ       0.155100
     18 C18         -1.4960    -2.6760     5.5490 c3         1 7FQ      -0.080100
     19 O01          2.0700    -0.0010    -1.1750 oh         1 7FQ      -0.523100
     20 C19         -1.1110    -2.3710     9.1530 c3         1 7FQ      -0.013100
     21 O03         -3.1480    -2.6170     7.6010 oh         1 7FQ      -0.599800
     22 H1          -0.5440     0.0000    -0.9370 ha         1 7FQ       0.139000
     23 H2           3.1570    -0.0000     1.2020 ha         1 7FQ       0.138000
     24 H3          -1.7650     0.0050     1.1980 ha         1 7FQ       0.135000
     25 H4           3.0050     0.7070     3.5860 hc         1 7FQ       0.051700
     26 H5           2.6120    -1.0010     3.8190 hc         1 7FQ       0.051700
     27 H6           1.0900     1.4040     4.8560 hc         1 7FQ       0.046700
     28 H7           1.8890     0.1300     5.7990 hc         1 7FQ       0.046700
     29 H8           0.3100    -1.5300     4.6840 hc         1 7FQ       0.069700
     30 H9          -1.0490     1.0620     3.8880 hc         1 7FQ       0.056700
     31 H10         -1.0880     0.6950     6.2230 hc         1 7FQ       0.056700
     32 H11         -3.1520     0.2970     5.1060 hc         1 7FQ       0.042700
     33 H12         -3.7670    -1.3360     4.7750 hc         1 7FQ       0.042700
     34 H13         -2.6910    -0.3140     2.7590 hc         1 7FQ       0.048200
     35 H14         -1.8580    -1.7810     3.2910 hc         1 7FQ       0.048200
     36 H15          0.5250    -0.1010     7.8300 hc         1 7FQ       0.051200
     37 H16          0.4220    -1.7720     7.2040 hc         1 7FQ       0.051200
     38 H17         -1.5290    -0.2620     8.9420 hc         1 7FQ       0.055700
     39 H18         -3.2850    -0.5500     7.4980 h1         1 7FQ       0.034700
     40 H19         -1.0690    -2.6370     4.5540 hc         1 7FQ       0.042700
     41 H20         -2.3320    -3.3640     5.5560 hc         1 7FQ       0.042700
     42 H21         -0.7440    -3.0140     6.2510 hc         1 7FQ       0.042700
     43 H22          2.2440     0.8880    -1.4390 ho         1 7FQ       0.417000
     44 H23         -0.8470    -3.2000     8.5070 hc         1 7FQ       0.057700
     45 H24         -2.0130    -2.6130     9.7010 hc         1 7FQ       0.057700
     46 H26         -4.0630    -2.5080     7.7990 ho         1 7FQ       0.398000
     47 C1           0.0130    -2.1140    10.1240 ca         1 7FQ      -0.121300
     48 C2          -0.2630    -1.5990    11.3770 ca         1 7FQ      -0.090500
     49 C3           0.7640    -1.3620    12.2700 ca         1 7FQ      -0.187500
     50 C4           2.0740    -1.6420    11.9080 ca         1 7FQ       0.135100
     51 C5           2.3480    -2.1590    10.6490 ca         1 7FQ      -0.187500
     52 C6           1.3160    -2.3990     9.7630 ca         1 7FQ      -0.090500
     53 O1           3.0880    -1.4090    12.7830 os         1 7FQ      -0.330900
     54 C8           4.4100    -1.7210    12.3420 c3         1 7FQ       0.129700
     55 H25         -1.2860    -1.3810    11.6590 ha         1 7FQ       0.132000
     56 H27          0.5470    -0.9590    13.2510 ha         1 7FQ       0.137500
     57 H28          3.3700    -2.3800    10.3640 ha         1 7FQ       0.137500
     58 H29          1.5300    -2.8030     8.7810 ha         1 7FQ       0.132000
     59 H30          4.6460    -1.1320    11.4640 h1         1 7FQ       0.040367
     60 H31          5.1170    -1.4920    13.1310 h1         1 7FQ       0.040367
     61 H32          4.4710    -2.7740    12.0970 h1         1 7FQ       0.040367
@<TRIPOS>BOND
     1    19     2 1
     2     2     3 ar
     3     2     1 ar
     4     3     4 ar
     5     1     6 ar
     6     4     7 1
     7     4     5 ar
     8     7     8 1
     9     6     5 ar
    10     5    10 1
    11     8     9 1
    12     9    10 1
    13     9    11 1
    14    10    14 1
    15    14    13 1
    16    11    15 1
    17    11    12 1
    18    18    12 1
    19    15    16 1
    20    12    13 1
    21    12    17 1
    22    16    17 1
    23    16    20 1
    24    17    21 1
    25     1    22 1
    26     3    23 1
    27     6    24 1
    28     7    25 1
    29     7    26 1
    30     8    27 1
    31     8    28 1
    32     9    29 1
    33    10    30 1
    34    11    31 1
    35    13    32 1
    36    13    33 1
    37    14    34 1
    38    14    35 1
    39    15    36 1
    40    15    37 1
    41    16    38 1
    42    17    39 1
    43    18    40 1
    44    18    41 1
    45    18    42 1
    46    19    43 1
    47    20    44 1
    48    20    45 1
    49    21    46 1
    50    20    47 1
    51    47    48 ar
    52    48    49 ar
    53    49    50 ar
    54    50    51 ar
    55    51    52 ar
    56    52    47 ar
    57    50    53 1
    58    53    54 1
    59    48    55 1
    60    49    56 1
    61    51    57 1
    62    52    58 1
    63    54    59 1
    64    54    60 1
    65    54    61 1
@<TRIPOS>SUBSTRUCTURE
     1 7FQ         1 TEMP              0 ****  ****    0 ROOT
