@<TRIPOS>MOLECULE
7FR
   62    66     1     0     0
SMALL
bcc


@<TRIPOS>ATOM
      1 C01          0.0000     0.0000     0.0000 ca         1 7FR      -0.141000
      2 C02          1.3880     0.0000     0.0000 ca         1 7FR       0.122100
      3 C03          2.0740     0.0000     1.2020 ca         1 7FR      -0.141000
      4 C04          1.3860     0.0010     2.4080 ca         1 7FR      -0.057300
      5 C05          0.0070     0.0090     2.4040 ca         1 7FR      -0.087300
      6 C06         -0.6810     0.0050     1.1980 ca         1 7FR      -0.092000
      7 C07          2.2000    -0.0140     3.6750 c3         1 7FR       0.035900
      8 C08          1.3450     0.3400     4.8910 c3         1 7FR      -0.024400
      9 C09          0.0680    -0.5000     4.8370 c3         1 7FR      -0.054700
     10 C10         -0.7890     0.0240     3.6770 c3         1 7FR       0.015600
     11 C11         -0.7540    -0.3510     6.1010 c3         1 7FR      -0.041700
     12 C12         -1.9740    -1.3040     5.9440 c3         1 7FR      -0.143300
     13 C13         -2.8810    -0.7330     4.8740 c3         1 7FR      -0.047400
     14 C14         -2.0860    -0.7610     3.5410 c3         1 7FR      -0.035400
     15 C15         -0.1150    -0.9050     7.3810 c3         1 7FR      -0.027400
     16 C16         -1.3500    -1.2050     8.2740 c3         1 7FR      -0.060700
     17 C17         -2.5350    -1.3910     7.3300 c2         1 7FR       0.397300
     18 O01          2.0700     0.0010    -1.1750 oh         1 7FR      -0.501100
     19 N01         -3.7690    -1.5850     7.6590 ne         1 7FR      -0.451100
     20 C27         -1.4820    -2.6840     5.5080 c3         1 7FR      -0.035100
     21 H1          -0.5450     0.0000    -0.9360 ha         1 7FR       0.113000
     22 H2           3.1580    -0.0000     1.2020 ha         1 7FR       0.116000
     23 H3          -1.7650     0.0050     1.1990 ha         1 7FR       0.113000
     24 H4           2.6180    -1.0040     3.8140 hc         1 7FR       0.020200
     25 H5           3.0040     0.7060     3.5870 hc         1 7FR       0.020200
     26 H6           1.0900     1.3920     4.8630 hc         1 7FR       0.019700
     27 H7           1.8910     0.1140     5.7980 hc         1 7FR       0.019700
     28 H8           0.3150    -1.5420     4.6750 hc         1 7FR       0.054700
     29 H9          -1.0470     1.0530     3.8940 hc         1 7FR       0.033700
     30 H10         -1.0800     0.6730     6.2390 hc         1 7FR       0.043700
     31 H11         -3.7720    -1.3420     4.7840 hc         1 7FR       0.038700
     32 H12         -3.1470     0.2870     5.1220 hc         1 7FR       0.038700
     33 H13         -2.6900    -0.3180     2.7580 hc         1 7FR       0.028200
     34 H14         -1.8560    -1.7880     3.2850 hc         1 7FR       0.028200
     35 H15          0.5200    -0.1600     7.8450 hc         1 7FR       0.024200
     36 H16          0.4350    -1.8140     7.1720 hc         1 7FR       0.024200
     37 H17         -1.1840    -2.1120     8.8420 hc         1 7FR       0.029700
     38 H18         -1.5360    -0.3720     8.9410 hc         1 7FR       0.029700
     39 H19          2.1730     0.8880    -1.4790 ho         1 7FR       0.401000
     40 H21         -1.6070    -2.7910     4.4370 hc         1 7FR       0.024367
     41 H22         -0.4350    -2.7920     5.7610 hc         1 7FR       0.024367
     42 H23         -2.0570    -3.4500     6.0160 hc         1 7FR       0.024367
     43 C1          -4.7000    -1.8710     6.6930 ca         1 7FR       0.110400
     44 C2          -4.6470    -3.0830     6.0050 ca         1 7FR      -0.131500
     45 C3          -5.5870    -3.3640     5.0340 ca         1 7FR      -0.080000
     46 C4          -6.5800    -2.4470     4.7430 ca         1 7FR      -0.107300
     47 C5          -6.6370    -1.2420     5.4210 ca         1 7FR      -0.080000
     48 C6          -5.7070    -0.9510     6.3980 ca         1 7FR      -0.131500
     49 C7          -7.6020    -2.7590     3.6810 c3         1 7FR       0.006600
     50 C8          -9.0010    -2.7500     4.3010 c3         1 7FR       0.004900
     51 C9          -7.5280    -1.7050     2.5740 c3         1 7FR       0.004900
     52 H20         -3.8700    -3.8030     6.2320 ha         1 7FR       0.116500
     53 H24         -5.5470    -4.3060     4.4990 ha         1 7FR       0.108000
     54 H25         -7.4190    -0.5280     5.1890 ha         1 7FR       0.108000
     55 H26         -5.7530    -0.0080     6.9280 ha         1 7FR       0.116500
     56 H27         -7.4000    -3.7370     3.2620 hc         1 7FR       0.026700
     57 H28         -8.9860    -3.3020     5.2330 hc         1 7FR       0.004533
     58 H29         -9.7020    -3.2140     3.6180 hc         1 7FR       0.004533
     59 H30         -9.3050    -1.7280     4.4910 hc         1 7FR       0.004533
     60 H31         -8.2240    -1.9620     1.7850 hc         1 7FR       0.004533
     61 H32         -7.7850    -0.7350     2.9810 hc         1 7FR       0.004533
     62 H33         -6.5230    -1.6740     2.1720 hc         1 7FR       0.004533
@<TRIPOS>BOND
     1     1     2 ar  
     2     1     6 ar  
     3     1    21 1   
     4     2     3 ar  
     5     2    18 1   
     6     3     4 ar  
     7     3    22 1   
     8     4     5 ar  
     9     4     7 1   
    10     5     6 ar  
    11     5    10 1   
    12     6    23 1   
    13     7     8 1   
    14     7    24 1   
    15     7    25 1   
    16     8     9 1   
    17     8    26 1   
    18     8    27 1   
    19     9    10 1   
    20     9    11 1   
    21     9    28 1   
    22    10    14 1   
    23    10    29 1   
    24    11    12 1   
    25    11    15 1   
    26    11    30 1   
    27    12    13 1   
    28    12    17 1   
    29    12    20 1   
    30    13    14 1   
    31    13    31 1   
    32    13    32 1   
    33    14    33 1   
    34    14    34 1   
    35    15    16 1   
    36    15    35 1   
    37    15    36 1   
    38    16    17 1   
    39    16    37 1   
    40    16    38 1   
    41    17    19 2   
    42    18    39 1   
    43    19    43 1   
    44    20    40 1   
    45    20    41 1   
    46    20    42 1   
    47    43    44 ar  
    48    43    48 ar  
    49    44    45 ar  
    50    44    52 1   
    51    45    46 ar  
    52    45    53 1   
    53    46    47 ar  
    54    46    49 1   
    55    47    48 ar  
    56    47    54 1   
    57    48    55 1   
    58    49    50 1   
    59    49    51 1   
    60    49    56 1   
    61    50    57 1   
    62    50    58 1   
    63    50    59 1   
    64    51    60 1   
    65    51    61 1   
    66    51    62 1   
@<TRIPOS>SUBSTRUCTURE
     1 7FR         1 TEMP              0 ****  ****    0 ROOT
