@<TRIPOS>MOLECULE
molecule
   64    68     1     0     0
SMALL
bcc


@<TRIPOS>ATOM
      1 C01          0.0000     0.0000     0.0000 ca         1 7FS      -0.153000
      2 C02          1.3870     0.0000     0.0000 ca         1 7FS       0.103100
      3 C03          2.0730     0.0000     1.2030 ca         1 7FS      -0.155000
      4 C04          1.3850    -0.0000     2.4080 ca         1 7FS      -0.060300
      5 C05          0.0050     0.0090     2.4040 ca         1 7FS      -0.077300
      6 C06         -0.6830     0.0100     1.1980 ca         1 7FS      -0.117000
      7 C07          2.1970    -0.0240     3.6770 c3         1 7FS      -0.033100
      8 C08          1.3460     0.3550     4.8870 c3         1 7FS      -0.074400
      9 C09          0.0610    -0.4710     4.8450 c3         1 7FS      -0.061700
     10 C10         -0.7920     0.0400     3.6760 c3         1 7FS      -0.020400
     11 C11         -0.7640    -0.2930     6.1030 c3         1 7FS      -0.065700
     12 C12         -1.9880    -1.2420     5.9640 c3         1 7FS      -0.078000
     13 C13         -2.8830    -0.6950     4.8710 c3         1 7FS      -0.063400
     14 C14         -2.0910    -0.7420     3.5510 c3         1 7FS      -0.075400
     15 C15         -0.1290    -0.8020     7.4020 c3         1 7FS      -0.078400
     16 C16         -1.3590    -1.0520     8.3170 c3         1 7FS      -0.105400
     17 C17         -2.5660    -1.2790     7.3730 c3         1 7FS       0.251500
     18 O01          2.0700    -0.0000    -1.1750 oh         1 7FS      -0.522100
     19 N01         -3.1780    -2.5840     7.6370 nu         1 7FS      -0.826600
     20 C18         -1.5090    -2.6440     5.5820 c3         1 7FS      -0.098100
     21 H1          -0.5440     0.0000    -0.9370 ha         1 7FS       0.139000
     22 H2           3.1560     0.0000     1.2030 ha         1 7FS       0.139000
     23 H3          -1.7660     0.0100     1.1990 ha         1 7FS       0.135000
     24 H4           3.0160     0.6790     3.5860 hc         1 7FS       0.052200
     25 H5           2.5940    -1.0220     3.8230 hc         1 7FS       0.052200
     26 H6           1.8900     0.1370     5.7980 hc         1 7FS       0.047700
     27 H7           1.1020     1.4100     4.8440 hc         1 7FS       0.047700
     28 H8           0.2970    -1.5180     4.7010 hc         1 7FS       0.067700
     29 H9          -1.0470     1.0720     3.8800 hc         1 7FS       0.059700
     30 H10         -1.0880     0.7350     6.2110 hc         1 7FS       0.061700
     31 H11         -3.1560     0.3280     5.0980 hc         1 7FS       0.048200
     32 H12         -3.7730    -1.3080     4.7860 hc         1 7FS       0.048200
     33 H13         -2.6910    -0.3090     2.7600 hc         1 7FS       0.046700
     34 H14         -1.8630    -1.7730     3.3090 hc         1 7FS       0.046700
     35 H15          0.4100    -1.7260     7.2270 hc         1 7FS       0.047200
     36 H16          0.5190    -0.0470     7.8320 hc         1 7FS       0.047200
     37 H17         -1.5360    -0.1860     8.9430 hc         1 7FS       0.053200
     38 H18         -1.1950    -1.9320     8.9260 hc         1 7FS       0.053200
     39 H19         -3.2930    -0.4850     7.5000 h1         1 7FS       0.065700
     40 H20          2.2390    -0.8890    -1.4400 ho         1 7FS       0.417000
     41 H21         -2.8690    -3.3920     7.1330 hn         1 7FS       0.443800
     42 H24         -0.8690    -2.5820     4.7100 hc         1 7FS       0.043033
     43 H25         -2.3650    -3.2690     5.3570 hc         1 7FS       0.043033
     44 H26         -0.9550    -3.0740     6.4070 hc         1 7FS       0.043033
     45 C1          -4.1510    -2.7110     8.6300 ca         1 7FS       0.200600
     46 C2          -4.7320    -3.9480     8.8820 ca         1 7FS      -0.209500
     47 C3          -5.6940    -4.0700     9.8660 ca         1 7FS      -0.077500
     48 C4          -6.0790    -2.9640    10.6000 ca         1 7FS      -0.137300
     49 C5          -5.5020    -1.7320    10.3530 ca         1 7FS      -0.077500
     50 C6          -4.5360    -1.6030     9.3740 ca         1 7FS      -0.209500
     51 C7          -7.1290    -3.1010    11.6730 c3         1 7FS      -0.022400
     52 C8          -6.5350    -2.6920    13.0220 c3         1 7FS      -0.085100
     53 C9          -8.3160    -2.1950    11.3430 c3         1 7FS      -0.085100
     54 H22         -4.4320    -4.8150     8.3070 ha         1 7FS       0.128000
     55 H23         -6.1480    -5.0340    10.0620 ha         1 7FS       0.127500
     56 H27         -5.8040    -0.8670    10.9320 ha         1 7FS       0.127500
     57 H28         -4.0850    -0.6370     9.1810 ha         1 7FS       0.128000
     58 H29         -7.4620    -4.1300    11.7220 hc         1 7FS       0.050700
     59 H30         -7.2160    -2.9750    13.8170 hc         1 7FS       0.034033
     60 H31         -5.5850    -3.1930    13.1660 hc         1 7FS       0.034033
     61 H32         -6.3850    -1.6190    13.0410 hc         1 7FS       0.034033
     62 H33         -8.6110    -2.3480    10.3110 hc         1 7FS       0.034033
     63 H34         -9.1470    -2.4360    11.9950 hc         1 7FS       0.034033
     64 H35         -8.0320    -1.1600    11.4870 hc         1 7FS       0.034033
@<TRIPOS>BOND
     1    16    15 1
     2    16    17 1
     3    15    11 1
     4     8     7 1
     5     8     9 1
     6    20    12 1
     7     7     4 1
     8    17    19 1
     9    17    12 1
    10    11     9 1
    11    11    12 1
    12     9    10 1
    13    12    13 1
    14     4     3 ar
    15     4     5 ar
    16     3     2 ar
    17    10     5 1
    18    10    14 1
    19    13    14 1
    20     5     6 ar
    21     2    18 1
    22     2     1 ar
    23     6     1 ar
    24     1    21 1
    25     3    22 1
    26     6    23 1
    27     7    24 1
    28     7    25 1
    29     8    26 1
    30     8    27 1
    31     9    28 1
    32    10    29 1
    33    11    30 1
    34    13    31 1
    35    13    32 1
    36    14    33 1
    37    14    34 1
    38    15    35 1
    39    15    36 1
    40    16    37 1
    41    16    38 1
    42    17    39 1
    43    18    40 1
    44    19    41 1
    45    20    42 1
    46    20    43 1
    47    20    44 1
    48    19    45 1
    49    45    46 ar
    50    46    47 ar
    51    47    48 ar
    52    48    49 ar
    53    49    50 ar
    54    50    45 ar
    55    48    51 1
    56    51    52 1
    57    51    53 1
    58    46    54 1
    59    47    55 1
    60    49    56 1
    61    50    57 1
    62    51    58 1
    63    52    59 1
    64    52    60 1
    65    52    61 1
    66    53    62 1
    67    53    63 1
    68    53    64 1
@<TRIPOS>SUBSTRUCTURE
     1 7FS         1 TEMP              0 ****  ****    0 ROOT
