@<TRIPOS>MOLECULE
7FS
   64    68     1     0     0
SMALL
bcc


@<TRIPOS>ATOM
      1 C01          0.0000     0.0000     0.0000 ca         1 7FS      -0.138000
      2 C02          1.3870     0.0000     0.0000 ca         1 7FS       0.122100
      3 C03          2.0730     0.0000     1.2030 ca         1 7FS      -0.143000
      4 C04          1.3850    -0.0000     2.4080 ca         1 7FS      -0.057300
      5 C05          0.0050     0.0090     2.4040 ca         1 7FS      -0.088300
      6 C06         -0.6830     0.0100     1.1980 ca         1 7FS      -0.092000
      7 C07          2.1970    -0.0240     3.6770 c3         1 7FS       0.035900
      8 C08          1.3460     0.3550     4.8870 c3         1 7FS      -0.023400
      9 C09          0.0610    -0.4710     4.8450 c3         1 7FS      -0.056700
     10 C10         -0.7920     0.0400     3.6760 c3         1 7FS       0.014600
     11 C11         -0.7640    -0.2930     6.1030 c3         1 7FS      -0.043700
     12 C12         -1.9880    -1.2420     5.9640 c3         1 7FS      -0.077000
     13 C13         -2.8830    -0.6950     4.8710 c3         1 7FS      -0.006400
     14 C14         -2.0910    -0.7420     3.5510 c3         1 7FS      -0.035400
     15 C15         -0.1290    -0.8020     7.4020 c3         1 7FS      -0.022400
     16 C16         -1.3590    -1.0520     8.3170 c3         1 7FS      -0.049400
     17 C17         -2.5660    -1.2790     7.3730 c3         1 7FS       0.150500
     18 O01          2.0700    -0.0000    -1.1750 oh         1 7FS      -0.500100
     19 N01         -3.1780    -2.5840     7.6370 nu         1 7FS      -0.443600
     20 C18         -1.5090    -2.6440     5.5820 c3         1 7FS      -0.039100
     21 H1          -0.5440     0.0000    -0.9370 ha         1 7FS       0.113000
     22 H2           3.1560     0.0000     1.2030 ha         1 7FS       0.115000
     23 H3          -1.7660     0.0100     1.1990 ha         1 7FS       0.113000
     24 H4           3.0160     0.6790     3.5860 hc         1 7FS       0.020200
     25 H5           2.5940    -1.0220     3.8230 hc         1 7FS       0.020200
     26 H6           1.8900     0.1370     5.7980 hc         1 7FS       0.020700
     27 H7           1.1020     1.4100     4.8440 hc         1 7FS       0.020700
     28 H8           0.2970    -1.5180     4.7010 hc         1 7FS       0.054700
     29 H9          -1.0470     1.0720     3.8800 hc         1 7FS       0.035700
     30 H10         -1.0880     0.7350     6.2110 hc         1 7FS       0.041700
     31 H11         -3.1560     0.3280     5.0980 hc         1 7FS       0.020200
     32 H12         -3.7730    -1.3080     4.7860 hc         1 7FS       0.020200
     33 H13         -2.6910    -0.3090     2.7600 hc         1 7FS       0.024700
     34 H14         -1.8630    -1.7730     3.3090 hc         1 7FS       0.024700
     35 H15          0.4100    -1.7260     7.2270 hc         1 7FS       0.020700
     36 H16          0.5190    -0.0470     7.8320 hc         1 7FS       0.020700
     37 H17         -1.5360    -0.1860     8.9430 hc         1 7FS       0.023700
     38 H18         -1.1950    -1.9320     8.9260 hc         1 7FS       0.023700
     39 H19         -3.2930    -0.4850     7.5000 h1         1 7FS       0.046700
     40 H20          2.2390    -0.8890    -1.4400 ho         1 7FS       0.401000
     41 H21         -2.8690    -3.3920     7.1330 hn         1 7FS       0.309800
     42 H24         -0.8690    -2.5820     4.7100 hc         1 7FS       0.022700
     43 H25         -2.3650    -3.2690     5.3570 hc         1 7FS       0.022700
     44 H26         -0.9550    -3.0740     6.4070 hc         1 7FS       0.022700
     45 C1          -4.1510    -2.7110     8.6300 ca         1 7FS       0.068600
     46 C2          -4.7320    -3.9480     8.8820 ca         1 7FS      -0.192500
     47 C3          -5.6940    -4.0700     9.8660 ca         1 7FS      -0.046000
     48 C4          -6.0790    -2.9640    10.6000 ca         1 7FS      -0.149300
     49 C5          -5.5020    -1.7320    10.3530 ca         1 7FS      -0.046000
     50 C6          -4.5360    -1.6030     9.3740 ca         1 7FS      -0.192500
     51 C7          -7.1290    -3.1010    11.6730 c3         1 7FS       0.014600
     52 C8          -6.5350    -2.6920    13.0220 c3         1 7FS       0.004900
     53 C9          -8.3160    -2.1950    11.3430 c3         1 7FS       0.004900
     54 H22         -4.4320    -4.8150     8.3070 ha         1 7FS       0.111000
     55 H23         -6.1480    -5.0340    10.0620 ha         1 7FS       0.102000
     56 H27         -5.8040    -0.8670    10.9320 ha         1 7FS       0.102000
     57 H28         -4.0850    -0.6370     9.1810 ha         1 7FS       0.111000
     58 H29         -7.4620    -4.1300    11.7220 hc         1 7FS       0.023700
     59 H30         -7.2160    -2.9750    13.8170 hc         1 7FS       0.003367
     60 H31         -5.5850    -3.1930    13.1660 hc         1 7FS       0.003367
     61 H32         -6.3850    -1.6190    13.0410 hc         1 7FS       0.003367
     62 H33         -8.6110    -2.3480    10.3110 hc         1 7FS       0.003367
     63 H34         -9.1470    -2.4360    11.9950 hc         1 7FS       0.003367
     64 H35         -8.0320    -1.1600    11.4870 hc         1 7FS       0.003367
@<TRIPOS>BOND
     1     1     2 ar  
     2     1     6 ar  
     3     1    21 1   
     4     2     3 ar  
     5     2    18 1   
     6     3     4 ar  
     7     3    22 1   
     8     4     5 ar  
     9     4     7 1   
    10     5     6 ar  
    11     5    10 1   
    12     6    23 1   
    13     7     8 1   
    14     7    24 1   
    15     7    25 1   
    16     8     9 1   
    17     8    26 1   
    18     8    27 1   
    19     9    10 1   
    20     9    11 1   
    21     9    28 1   
    22    10    14 1   
    23    10    29 1   
    24    11    12 1   
    25    11    15 1   
    26    11    30 1   
    27    12    13 1   
    28    12    17 1   
    29    12    20 1   
    30    13    14 1   
    31    13    31 1   
    32    13    32 1   
    33    14    33 1   
    34    14    34 1   
    35    15    16 1   
    36    15    35 1   
    37    15    36 1   
    38    16    17 1   
    39    16    37 1   
    40    16    38 1   
    41    17    19 1   
    42    17    39 1   
    43    18    40 1   
    44    19    41 1   
    45    19    45 1   
    46    20    42 1   
    47    20    43 1   
    48    20    44 1   
    49    45    46 ar  
    50    45    50 ar  
    51    46    47 ar  
    52    46    54 1   
    53    47    48 ar  
    54    47    55 1   
    55    48    49 ar  
    56    48    51 1   
    57    49    50 ar  
    58    49    56 1   
    59    50    57 1   
    60    51    52 1   
    61    51    53 1   
    62    51    58 1   
    63    52    59 1   
    64    52    60 1   
    65    52    61 1   
    66    53    62 1   
    67    53    63 1   
    68    53    64 1   
@<TRIPOS>SUBSTRUCTURE
     1 7FS         1 TEMP              0 ****  ****    0 ROOT
