@<TRIPOS>MOLECULE
molecule
   51    54     1     0     0
SMALL
bcc


@<TRIPOS>ATOM
      1 C13          0.0000     0.0000     0.0000 ca         1 7FT       0.392600
      2 C15          2.0160     0.0000     1.1200 ca         1 7FT       0.423200
      3 C17         -0.0090     0.0110     2.3900 ca         1 7FT       0.137100
      4 C20         -4.6090     3.5920    -1.2090 ca         1 7FT      -0.088300
      5 C21         -4.8040     3.8320     0.1380 ca         1 7FT      -0.126500
      6 C22         -5.8840     3.2680     0.7910 ca         1 7FT      -0.129500
      7 C24         -6.5740     2.2230    -1.2490 ca         1 7FT      -0.129500
      8 C28         -0.9720     1.2840     4.1500 c3         1 7FT       0.136700
      9 N01          0.9880     4.4220    -3.3700 nb         1 7FT      -0.771000
     10 C02          1.6310     3.2770    -3.1760 ca         1 7FT       0.958900
     11 N03          1.0510     2.2200    -2.6320 nb         1 7FT      -0.756000
     12 C04         -0.2230     2.2710    -2.2540 ca         1 7FT       0.525800
     13 C05         -0.9380     3.4710    -2.4450 ca         1 7FT      -0.354400
     14 C06         -0.2820     4.5590    -3.0230 ca         1 7FT       0.610300
     15 N07         -1.0840     1.3770    -1.6790 na         1 7FT      -0.162100
     16 C08         -2.3130     1.9590    -1.4970 cc         1 7FT      -0.096100
     17 C09         -2.2890     3.2260    -1.9400 cd         1 7FT      -0.120400
     18 C12         -0.7440     0.0010    -1.3110 c3         1 7FT       0.009000
     19 N14          1.3200     0.0000     0.0000 nb         1 7FT      -0.658000
     20 C16          1.3840    -0.0010     2.3460 ca         1 7FT      -0.212600
     21 C18         -0.7060     0.0050     1.1850 ca         1 7FT      -0.200600
     22 C19         -3.4330     4.2060    -1.9220 c3         1 7FT       0.039100
     23 C23         -6.7690     2.4630     0.0980 ca         1 7FT      -0.131000
     24 C25         -5.4920     2.7830    -1.9020 ca         1 7FT      -0.126500
     25 O27         -0.6670     0.0110     3.5760 os         1 7FT      -0.350900
     26 C29          2.1880     0.0030     3.6210 c3         1 7FT      -0.042800
     27 H1           3.0990    -0.0050     1.0770 h4         1 7FT       0.030100
     28 H2          -4.1110     4.4620     0.6810 ha         1 7FT       0.134500
     29 H3          -6.0370     3.4560     1.8470 ha         1 7FT       0.130500
     30 H4          -7.2670     1.5910    -1.7910 ha         1 7FT       0.130500
     31 H5          -2.5730     1.0000     0.9420 hc         1 7FT       0.051367
     32 H6          -2.5800    -0.2920     2.1510 hc         1 7FT       0.051367
     33 H7          -2.5700    -0.6930     0.4280 hc         1 7FT       0.051367
     34 H8          -0.5730     2.0690     3.5190 h1         1 7FT       0.039033
     35 H9          -2.0460     1.3960     4.2300 h1         1 7FT       0.039033
     36 H10         -0.5270     1.3520     5.1350 h1         1 7FT       0.039033
     37 H11         -3.1740     1.4700    -1.0580 h4         1 7FT       0.183000
     38 H12          3.2210     2.6010    -4.3270 hn         1 7FT       0.445800
     39 H13          3.6600     3.7030    -3.0620 hn         1 7FT       0.445800
     40 H14         -0.1190    -0.4350    -2.0810 h1         1 7FT       0.081700
     41 H15         -1.6520    -0.5810    -1.2110 h1         1 7FT       0.081700
     42 H16         -3.7140     4.4510    -2.9390 hc         1 7FT       0.064200
     43 H17         -3.1270     5.1080    -1.4050 hc         1 7FT       0.064200
     44 H18         -7.6160     2.0230     0.6100 ha         1 7FT       0.130000
     45 H19         -5.3400     2.5940    -2.9580 ha         1 7FT       0.134500
     46 H20          1.7170    -0.6480     4.3470 hc         1 7FT       0.049367
     47 H21          2.2340     1.0110     4.0150 hc         1 7FT       0.049367
     48 H22          3.1910    -0.3500     3.4160 hc         1 7FT       0.049367
     49 C26         -2.2130     0.0050     1.1760 c3         1 7FT      -0.052800
     50 N11          2.9600     3.1850    -3.5570 nv         1 7FT      -1.041500
     51 Cl          -1.1140     6.0610    -3.2810 cl         1 7FT      -0.156000
@<TRIPOS>BOND
     1     7    24 ar  
     2     7    23 ar  
     3    24     4 ar  
     4    23     6 ar  
     5    51    14 1   
     6     4    22 1   
     7     4     5 ar  
     8    22    17 1   
     9     6     5 ar  
    10    14    13 ar  
    11    14     9 ar  
    12    17    13 1   
    13    17    16 2   
    14     8    25 1   
    15    13    12 ar  
    16     9    10 ar  
    17    16    15 1   
    18    25     3 1   
    19    12    15 1   
    20    12    11 ar  
    21    10    11 ar  
    22    10    50 1   
    23    26    20 1   
    24    15    18 1   
    25     3    20 ar  
    26     3    21 ar  
    27    49    21 1   
    28    20     2 ar  
    29    21     1 ar  
    30     2    19 ar  
    31     1    19 ar  
    32     1    18 1   
    33     2    27 1   
    34     5    28 1   
    35     6    29 1   
    36     7    30 1   
    37    49    31 1   
    38    49    32 1   
    39    49    33 1   
    40     8    34 1   
    41     8    35 1   
    42     8    36 1   
    43    16    37 1   
    44    50    38 1   
    45    50    39 1   
    46    18    40 1   
    47    18    41 1   
    48    22    42 1   
    49    22    43 1   
    50    23    44 1   
    51    24    45 1   
    52    26    46 1   
    53    26    47 1   
    54    26    48 1   
@<TRIPOS>SUBSTRUCTURE
     1 7FT         1 TEMP              0 ****  ****    0 ROOT
