@<TRIPOS>MOLECULE
molecule
   26    27     1     0     0
SMALL
bcc


@<TRIPOS>ATOM
      1 N1           0.0000     0.0000     0.0000 nz         1 7FU      -0.531600
      2 C6           5.6010     0.0010     2.3700 ca         1 7FU      -0.090100
      3 C7           6.3080     0.0010     1.1590 ca         1 7FU       0.192400
      4 C8           2.0390     0.0000     1.1690 c          1 7FU       0.687700
      5 C10          4.2130     0.0010     2.3740 ca         1 7FU       0.026000
      6 C13          4.2190     0.0010    -0.0430 ca         1 7FU      -0.091000
      7 N2          10.3830     0.0010     1.9030 nz         1 7FU      -0.492400
      8 C3           8.0930     0.0010     2.5420 cc         1 7FU       0.582100
      9 N4           7.6410     0.0010     1.3330 nd         1 7FU      -0.661100
     10 S5           6.7650     0.0080     3.6920 ss         1 7FU       0.073900
     11 C9           3.5130     0.0010     1.1690 ca         1 7FU      -0.157600
     12 O11          1.4310     0.0000     2.2210 o          1 7FU      -0.537100
     13 C12          5.5760    -0.0000    -0.0510 ca         1 7FU      -0.063000
     14 N15          1.3660     0.0000     0.0000 ns         1 7FU      -0.522300
     15 H1          -0.3340     0.0050    -0.9440 hn         1 7FU       0.476467
     16 H2          -0.3340     0.8150     0.4760 hn         1 7FU       0.476467
     17 H3           3.6750     0.0380     3.3140 ha         1 7FU       0.183000
     18 H4           3.6760     0.0010    -0.9800 ha         1 7FU       0.134000
     19 H5          10.2780     0.8180     1.3350 hn         1 7FU       0.475133
     20 H6          11.2870     0.0070     2.3320 hn         1 7FU       0.475133
     21 H7           6.1050    -0.0010    -0.9960 ha         1 7FU       0.173000
     22 H8           9.7000    -0.0010     3.8450 hn         1 7FU       0.537800
     23 H9           1.8660    -0.0390    -0.8660 hn         1 7FU       0.392500
     24 H13         -0.3340    -0.8200     0.4680 hn         1 7FU       0.476467
     25 H23         10.2780    -0.8160     1.3360 hn         1 7FU       0.475133
     26 N14          9.4290     0.0010     2.8820 nu         1 7FU      -0.692000
@<TRIPOS>BOND
     1     7    26 1   
     2    26     8 1   
     3     8     9 2   
     4     8    10 1   
     5     9     3 1   
     6    10     2 1   
     7     3     2 ar  
     8     3    13 ar  
     9     2     5 ar  
    10    13     6 ar  
    11     5    11 ar  
    12     6    11 ar  
    13    11     4 1   
    14     4    12 2   
    15     4    14 1   
    16    14     1 1   
    17     1    15 1   
    18     1    16 1   
    19     5    17 1   
    20     6    18 1   
    21     7    19 1   
    22     7    20 1   
    23    13    21 1   
    24    26    22 1   
    25    14    23 1   
    26    24     1 1   
    27    25     7 1   
@<TRIPOS>SUBSTRUCTURE
     1 7FU         1 TEMP              0 ****  ****    0 ROOT
