@<TRIPOS>MOLECULE
molecule
   56    60     1     0     0
SMALL
bcc


@<TRIPOS>ATOM
      1 C1           0.0000     0.0000     0.0000 ca         1 7FV       0.165100
      2 C2           1.3870     0.0000     0.0000 ca         1 7FV      -0.253000
      3 C3           2.0770     0.0000     1.2000 ca         1 7FV       0.189100
      4 C4           1.3660     0.0000     2.4100 ca         1 7FV      -0.202600
      5 C5          -0.0320     0.0010     2.3920 ca         1 7FV      -0.034000
      6 C6          -0.7010     0.0010     1.2020 ca         1 7FV      -0.203000
      7 O7          -0.6770     0.0070    -1.1770 oh         1 7FV      -0.520100
      8 O8           3.4340    -0.0010     1.2060 oh         1 7FV      -0.481100
      9 C9           2.0890    -0.0010     3.6930 c          1 7FV       0.693700
     10 O10          3.0650     0.7110     3.8420 o          1 7FV      -0.574100
     11 N11          1.6710    -0.7890     4.7010 n          1 7FV      -0.372000
     12 C12          2.2390    -0.6440     6.0490 c3         1 7FV       0.116700
     13 C13          1.0780    -0.6770     7.0520 c3         1 7FV      -0.097400
     14 C14          0.4010    -2.0460     6.9760 c3         1 7FV      -0.032100
     15 C15          2.9780     0.6920     6.1570 c3         1 7FV      -0.095100
     16 C16          0.6840    -1.7580     4.4850 ca         1 7FV       0.079600
     17 C17          0.0560    -2.3840     5.5500 ca         1 7FV      -0.127300
     18 C18         -0.9150    -3.3390     5.3080 ca         1 7FV      -0.090000
     19 C19         -1.2550    -3.6760     3.9990 cp         1 7FV      -0.174500
     20 C20         -0.6150    -3.0500     2.9310 ca         1 7FV      -0.064000
     21 C21          0.3470    -2.0960     3.1760 ca         1 7FV      -0.212000
     22 C22         -2.2960    -4.7000     3.7440 cp         1 7FV       0.497800
     23 N23         -2.0780    -5.6260     2.8300 nb         1 7FV      -0.671000
     24 C24         -4.4520    -5.6040     4.2630 ca         1 7FV      -0.083000
     25 C25         -3.4890    -4.6640     4.4840 ca         1 7FV      -0.196600
     26 C26         -4.2160    -6.5830     3.2780 ca         1 7FV      -0.153300
     27 C27         -2.9890    -6.5680     2.5670 ca         1 7FV       0.418600
     28 C28         -2.7560    -7.5460     1.5850 ca         1 7FV      -0.161300
     29 C29         -3.7050    -8.4870     1.3300 ca         1 7FV      -0.122000
     30 C30         -4.9100    -8.5010     2.0300 ca         1 7FV      -0.127000
     31 C31         -5.1720    -7.5700     2.9890 ca         1 7FV      -0.112000
     32 C32         -3.7030    -3.5920     5.5210 c3         1 7FV      -0.047800
     33 H1           1.9300    -0.0000    -0.9380 ha         1 7FV       0.150000
     34 H2          -0.5850     0.0010     3.3240 ha         1 7FV       0.155000
     35 H3          -1.7840     0.0010     1.1940 ha         1 7FV       0.150000
     36 H4          -0.7630     0.8940    -1.4850 ho         1 7FV       0.427000
     37 H5           3.7520     0.5560     0.5150 ho         1 7FV       0.428000
     38 H6           2.9190    -1.4630     6.2500 h1         1 7FV       0.061700
     39 H7           1.4740    -0.5360     8.0510 hc         1 7FV       0.056700
     40 H8           0.3590     0.0870     6.7830 hc         1 7FV       0.056700
     41 H9           1.0740    -2.7990     7.3680 hc         1 7FV       0.053200
     42 H10         -0.5070    -2.0270     7.5670 hc         1 7FV       0.053200
     43 H11          2.3560     1.4830     5.7560 hc         1 7FV       0.052033
     44 H12          3.9030     0.6400     5.5960 hc         1 7FV       0.052033
     45 H13          3.1980     0.9000     7.1980 hc         1 7FV       0.052033
     46 H14         -1.4130    -3.8260     6.1380 ha         1 7FV       0.140000
     47 H15         -0.8760    -3.3090     1.9120 ha         1 7FV       0.152000
     48 H16          0.8460    -1.6080     2.3480 ha         1 7FV       0.182000
     49 H17         -5.3780    -5.5920     4.8250 ha         1 7FV       0.140000
     50 H18         -1.8240    -7.5500     1.0320 ha         1 7FV       0.149000
     51 H19         -3.5210    -9.2390     0.5720 ha         1 7FV       0.133000
     52 H20         -5.6490    -9.2610     1.8070 ha         1 7FV       0.130000
     53 H21         -6.1120    -7.5900     3.5260 ha         1 7FV       0.132000
     54 H22         -3.3110    -2.6520     5.1540 hc         1 7FV       0.046700
     55 H23         -3.1890    -3.8660     6.4350 hc         1 7FV       0.046700
     56 H24         -4.7630    -3.4890     5.7200 hc         1 7FV       0.046700
@<TRIPOS>BOND
     1    31    30 ar  
     2    31    26 ar  
     3    24    26 ar  
     4    24    25 ar  
     5    32    25 1   
     6    30    29 ar  
     7    26    27 ar  
     8    25    22 ar  
     9    29    28 ar  
    10    27    28 ar  
    11    27    23 ar  
    12    22    23 ar  
    13    22    19 1   
    14    14    17 1   
    15    14    13 1   
    16    18    19 ar  
    17    18    17 ar  
    18    19    20 ar  
    19    17    16 ar  
    20    13    12 1   
    21     6     5 ar  
    22     6     1 ar  
    23     5     4 ar  
    24    20    21 ar  
    25    16    11 1   
    26    16    21 ar  
    27     7     1 1   
    28    11    12 1   
    29    11     9 1   
    30     1     2 ar  
    31    12    15 1   
    32     4     9 1   
    33     4     3 ar  
    34     9    10 2   
    35     2     3 ar  
    36     3     8 1   
    37     2    33 1   
    38     5    34 1   
    39     6    35 1   
    40     7    36 1   
    41     8    37 1   
    42    12    38 1   
    43    13    39 1   
    44    13    40 1   
    45    14    41 1   
    46    14    42 1   
    47    15    43 1   
    48    15    44 1   
    49    15    45 1   
    50    18    46 1   
    51    20    47 1   
    52    21    48 1   
    53    24    49 1   
    54    28    50 1   
    55    29    51 1   
    56    30    52 1   
    57    31    53 1   
    58    32    54 1   
    59    32    55 1   
    60    32    56 1   
@<TRIPOS>SUBSTRUCTURE
     1 7FV         1 TEMP              0 ****  ****    0 ROOT
