@<TRIPOS>MOLECULE
7FW
   65    69     1     0     0
SMALL
bcc


@<TRIPOS>ATOM
      1 C1           0.0000     0.0000     0.0000 ca         1 7FW       0.194100
      2 C2           1.3880     0.0000     0.0000 ca         1 7FW      -0.262000
      3 C3           2.0810     0.0000     1.1980 ca         1 7FW       0.238100
      4 C4           1.3750    -0.0010     2.4110 ca         1 7FW      -0.219600
      5 C5          -0.0240    -0.0000     2.4000 ca         1 7FW      -0.085000
      6 C6          -0.7010     0.0050     1.2030 ca         1 7FW      -0.179000
      7 O7          -0.6760    -0.0000    -1.1760 oh         1 7FW      -0.501100
      8 O8           3.4370    -0.0010     1.1990 oh         1 7FW      -0.443100
      9 C9           2.1040    -0.0020     3.6910 c          1 7FW       0.607700
     10 O10          3.1460    -0.6200     3.7960 o          1 7FW      -0.609100
     11 N11          1.6160     0.6820     4.7440 n          1 7FW       0.044000
     12 C12          0.2860     1.2910     4.6710 c3         1 7FW       0.004300
     13 C13         -0.6350     0.6050     5.6460 ca         1 7FW      -0.118300
     14 C14         -0.9510    -0.7310     5.4760 ca         1 7FW      -0.099000
     15 C15         -1.7920    -1.3620     6.3730 ca         1 7FW      -0.090000
     16 C16         -2.3180    -0.6580     7.4400 ca         1 7FW      -0.092000
     17 C17         -2.0020     0.6770     7.6110 ca         1 7FW      -0.090000
     18 C18         -1.1610     1.3080     6.7130 ca         1 7FW      -0.099000
     19 C19          2.3770     0.8090     5.9040 ca         1 7FW      -0.047400
     20 C20          1.8140     1.3700     7.0470 ca         1 7FW      -0.189500
     21 C21          2.5630     1.4980     8.1940 ca         1 7FW      -0.047000
     22 C22          3.8920     1.0640     8.2120 ca         1 7FW      -0.184600
     23 C23          4.4550     0.5000     7.0630 ca         1 7FW      -0.047000
     24 C24          3.6980     0.3710     5.9200 ca         1 7FW      -0.189500
     25 C25          4.6980     1.2000     9.4400 c          1 7FW       0.621700
     26 N26          4.5350     2.2740    10.2370 n          1 7FW      -0.153800
     27 O27          5.5100     0.3430     9.7320 o          1 7FW      -0.652100
     28 C28          3.4980     3.2620     9.9330 c3         1 7FW       0.058300
     29 C29          5.3950     2.4530    11.4100 c3         1 7FW       0.108300
     30 C30          6.6180     3.2440    11.0200 ca         1 7FW      -0.106300
     31 C31          8.8730     3.2580    10.2090 ca         1 7FW      -0.137300
     32 C32          7.7530     2.5740    10.5690 ca         1 7FW      -0.071000
     33 C33          6.5950     4.6010    11.1090 ca         1 7FW      -0.134300
     34 C34          8.8900     4.6610    10.2930 ca         1 7FW       0.263300
     35 C35          7.7330     5.3430    10.7470 ca         1 7FW       0.258300
     36 N36          7.7400     6.6780    10.8240 nb         1 7FW      -0.537000
     37 C37          8.8180     7.3430    10.4780 ca         1 7FW       0.285900
     38 C38          9.9580     6.6710    10.0300 ca         1 7FW       0.286900
     39 N39          9.9750     5.3600     9.9460 nb         1 7FW      -0.533000
     40 H1           1.9290    -0.0020    -0.9380 ha         1 7FW       0.126000
     41 H2          -0.5730     0.0010     3.3330 ha         1 7FW       0.157000
     42 H3          -1.7840     0.0060     1.1960 ha         1 7FW       0.122000
     43 H4          -0.7200    -0.8800    -1.5140 ho         1 7FW       0.410000
     44 H5           3.7520    -0.2280     0.3390 ho         1 7FW       0.404000
     45 H6          -0.1060     1.1830     3.6670 h1         1 7FW       0.066200
     46 H7           0.3560     2.3430     4.9200 h1         1 7FW       0.066200
     47 H8          -0.5390    -1.2830     4.6390 ha         1 7FW       0.114000
     48 H9          -2.0400    -2.4080     6.2400 ha         1 7FW       0.106000
     49 H10         -2.9770    -1.1520     8.1440 ha         1 7FW       0.106000
     50 H11         -2.4140     1.2290     8.4470 ha         1 7FW       0.106000
     51 H12         -0.9140     2.3540     6.8460 ha         1 7FW       0.114000
     52 H13          0.7840     1.7060     7.0330 ha         1 7FW       0.167000
     53 H14          2.1240     1.9350     9.0830 ha         1 7FW       0.120500
     54 H15          5.4840     0.1610     7.0730 ha         1 7FW       0.120500
     55 H16          4.1340    -0.0660     5.0300 ha         1 7FW       0.167000
     56 H17          3.7270     4.1940    10.4350 h1         1 7FW       0.017700
     57 H18          3.4610     3.4280     8.8630 h1         1 7FW       0.017700
     58 H19          2.5370     2.8950    10.2740 h1         1 7FW       0.017700
     59 H20          4.8500     2.9860    12.1790 h1         1 7FW       0.037700
     60 H21          5.6970     1.4830    11.7870 h1         1 7FW       0.037700
     61 H22          9.7490     2.7240     9.8610 ha         1 7FW       0.122000
     62 H23          7.7450     1.4920    10.5050 ha         1 7FW       0.133000
     63 H24          5.7330     5.1030    11.5320 ha         1 7FW       0.118000
     64 H25          8.8240     8.4250    10.5410 h4         1 7FW      -0.012900
     65 H26         10.8380     7.2370     9.7490 h4         1 7FW      -0.012900
@<TRIPOS>BOND
     1     1     2 ar  
     2     1     6 ar  
     3     1     7 1   
     4     2     3 ar  
     5     2    40 1   
     6     3     4 ar  
     7     3     8 1   
     8     4     5 ar  
     9     4     9 1   
    10     5     6 ar  
    11     5    41 1   
    12     6    42 1   
    13     7    43 1   
    14     8    44 1   
    15     9    10 2   
    16     9    11 1   
    17    11    12 1   
    18    11    19 1   
    19    12    13 1   
    20    12    45 1   
    21    12    46 1   
    22    13    14 ar  
    23    13    18 ar  
    24    14    15 ar  
    25    14    47 1   
    26    15    16 ar  
    27    15    48 1   
    28    16    17 ar  
    29    16    49 1   
    30    17    18 ar  
    31    17    50 1   
    32    18    51 1   
    33    19    20 ar  
    34    19    24 ar  
    35    20    21 ar  
    36    20    52 1   
    37    21    22 ar  
    38    21    53 1   
    39    22    23 ar  
    40    22    25 1   
    41    23    24 ar  
    42    23    54 1   
    43    24    55 1   
    44    25    26 1   
    45    25    27 2   
    46    26    28 1   
    47    26    29 1   
    48    28    56 1   
    49    28    57 1   
    50    28    58 1   
    51    29    30 1   
    52    29    59 1   
    53    29    60 1   
    54    30    32 ar  
    55    30    33 ar  
    56    31    32 ar  
    57    31    34 ar  
    58    31    61 1   
    59    32    62 1   
    60    33    35 ar  
    61    33    63 1   
    62    34    35 ar  
    63    34    39 ar  
    64    35    36 ar  
    65    36    37 ar  
    66    37    38 ar  
    67    37    64 1   
    68    38    39 ar  
    69    38    65 1   
@<TRIPOS>SUBSTRUCTURE
     1 7FW         1 TEMP              0 ****  ****    0 ROOT
