@<TRIPOS>MOLECULE
molecule
   65    69     1     0     0
SMALL
bcc


@<TRIPOS>ATOM
      1 C1           0.0000     0.0000     0.0000 ca         1 7FW       0.172100
      2 C2           1.3880     0.0000     0.0000 ca         1 7FW      -0.266000
      3 C3           2.0810     0.0000     1.1980 ca         1 7FW       0.209100
      4 C4           1.3750    -0.0010     2.4110 ca         1 7FW      -0.194600
      5 C5          -0.0240    -0.0000     2.4000 ca         1 7FW      -0.089000
      6 C6          -0.7010     0.0050     1.2030 ca         1 7FW      -0.195000
      7 O7          -0.6760    -0.0000    -1.1760 oh         1 7FW      -0.519100
      8 O8           3.4370    -0.0010     1.1990 oh         1 7FW      -0.464100
      9 C9           2.1040    -0.0020     3.6910 c          1 7FW       0.686700
     10 O10          3.1460    -0.6200     3.7960 o          1 7FW      -0.567100
     11 N11          1.6160     0.6820     4.7440 n          1 7FW      -0.361000
     12 C12          0.2860     1.2910     4.6710 c3         1 7FW       0.101300
     13 C13         -0.6350     0.6050     5.6460 ca         1 7FW      -0.119300
     14 C14         -0.9510    -0.7310     5.4760 ca         1 7FW      -0.118500
     15 C15         -1.7920    -1.3620     6.3730 ca         1 7FW      -0.122500
     16 C16         -2.3180    -0.6580     7.4400 ca         1 7FW      -0.118000
     17 C17         -2.0020     0.6770     7.6110 ca         1 7FW      -0.122500
     18 C18         -1.1610     1.3080     6.7130 ca         1 7FW      -0.118500
     19 C19          2.3770     0.8090     5.9040 ca         1 7FW       0.087600
     20 C20          1.8140     1.3700     7.0470 ca         1 7FW      -0.187000
     21 C21          2.5630     1.4980     8.1940 ca         1 7FW      -0.074500
     22 C22          3.8920     1.0640     8.2120 ca         1 7FW      -0.176600
     23 C23          4.4550     0.5000     7.0630 ca         1 7FW      -0.074500
     24 C24          3.6980     0.3710     5.9200 ca         1 7FW      -0.187000
     25 C25          4.6980     1.2000     9.4400 c          1 7FW       0.684700
     26 N26          4.5350     2.2740    10.2370 n          1 7FW      -0.488800
     27 O27          5.5100     0.3430     9.7320 o          1 7FW      -0.613100
     28 C28          3.4980     3.2620     9.9330 c3         1 7FW       0.089300
     29 C29          5.3950     2.4530    11.4100 c3         1 7FW       0.154300
     30 C30          6.6180     3.2440    11.0200 ca         1 7FW      -0.096300
     31 C31          8.8730     3.2580    10.2090 ca         1 7FW      -0.162300
     32 C32          7.7530     2.5740    10.5690 ca         1 7FW      -0.098000
     33 C33          6.5950     4.6010    11.1090 ca         1 7FW      -0.154300
     34 C34          8.8900     4.6610    10.2930 ca         1 7FW       0.302300
     35 C35          7.7330     5.3430    10.7470 ca         1 7FW       0.296300
     36 N36          7.7400     6.6780    10.8240 nb         1 7FW      -0.643000
     37 C37          8.8180     7.3430    10.4780 ca         1 7FW       0.297900
     38 C38          9.9580     6.6710    10.0300 ca         1 7FW       0.299900
     39 N39          9.9750     5.3600     9.9460 nb         1 7FW      -0.640000
     40 H1           1.9290    -0.0020    -0.9380 ha         1 7FW       0.148000
     41 H2          -0.5730     0.0010     3.3330 ha         1 7FW       0.171000
     42 H3          -1.7840     0.0060     1.1960 ha         1 7FW       0.149000
     43 H4          -0.7200    -0.8800    -1.5140 ho         1 7FW       0.429000
     44 H5           3.7520    -0.2280     0.3390 ho         1 7FW       0.427000
     45 H6          -0.1060     1.1830     3.6670 h1         1 7FW       0.082700
     46 H7           0.3560     2.3430     4.9200 h1         1 7FW       0.082700
     47 H8          -0.5390    -1.2830     4.6390 ha         1 7FW       0.134500
     48 H9          -2.0400    -2.4080     6.2400 ha         1 7FW       0.134000
     49 H10         -2.9770    -1.1520     8.1440 ha         1 7FW       0.134000
     50 H11         -2.4140     1.2290     8.4470 ha         1 7FW       0.134000
     51 H12         -0.9140     2.3540     6.8460 ha         1 7FW       0.134500
     52 H13          0.7840     1.7060     7.0330 ha         1 7FW       0.176000
     53 H14          2.1240     1.9350     9.0830 ha         1 7FW       0.146500
     54 H15          5.4840     0.1610     7.0730 ha         1 7FW       0.146500
     55 H16          4.1340    -0.0660     5.0300 ha         1 7FW       0.176000
     56 H17          3.7270     4.1940    10.4350 h1         1 7FW       0.043367
     57 H18          3.4610     3.4280     8.8630 h1         1 7FW       0.043367
     58 H19          2.5370     2.8950    10.2740 h1         1 7FW       0.043367
     59 H20          4.8500     2.9860    12.1790 h1         1 7FW       0.068200
     60 H21          5.6970     1.4830    11.7870 h1         1 7FW       0.068200
     61 H22          9.7490     2.7240     9.8610 ha         1 7FW       0.153000
     62 H23          7.7450     1.4920    10.5050 ha         1 7FW       0.160000
     63 H24          5.7330     5.1030    11.5320 ha         1 7FW       0.145000
     64 H25          8.8240     8.4250    10.5410 h4         1 7FW       0.029100
     65 H26         10.8380     7.2370     9.7490 h4         1 7FW       0.030100
@<TRIPOS>BOND
     1    15    16 ar  
     2    15    14 ar  
     3    16    17 ar  
     4     8     3 1   
     5    14    13 ar  
     6    17    18 ar  
     7     3     2 ar  
     8     3     4 ar  
     9     2     1 ar  
    10    13    18 ar  
    11    13    12 1   
    12    10     9 2   
    13     9     4 1   
    14     9    11 1   
    15     4     5 ar  
    16    12    11 1   
    17    11    19 1   
    18    20    19 ar  
    19    20    21 ar  
    20     1     7 1   
    21     1     6 ar  
    22    19    24 ar  
    23    21    22 ar  
    24     5     6 ar  
    25    24    23 ar  
    26    28    26 1   
    27    22    23 ar  
    28    22    25 1   
    29    26    25 1   
    30    26    29 1   
    31    25    27 2   
    32    29    30 1   
    33    30    33 ar  
    34    30    32 ar  
    35    33    35 ar  
    36    32    31 ar  
    37    35    36 ar  
    38    35    34 ar  
    39    36    37 ar  
    40    31    34 ar  
    41    34    39 ar  
    42    37    38 ar  
    43    39    38 ar  
    44     2    40 1   
    45     5    41 1   
    46     6    42 1   
    47     7    43 1   
    48     8    44 1   
    49    12    45 1   
    50    12    46 1   
    51    14    47 1   
    52    15    48 1   
    53    16    49 1   
    54    17    50 1   
    55    18    51 1   
    56    20    52 1   
    57    21    53 1   
    58    23    54 1   
    59    24    55 1   
    60    28    56 1   
    61    28    57 1   
    62    28    58 1   
    63    29    59 1   
    64    29    60 1   
    65    31    61 1   
    66    32    62 1   
    67    33    63 1   
    68    37    64 1   
    69    38    65 1   
@<TRIPOS>SUBSTRUCTURE
     1 7FW         1 TEMP              0 ****  ****    0 ROOT
