@<TRIPOS>MOLECULE
molecule
   35    37     1     0     0
SMALL
bcc


@<TRIPOS>ATOM
      1 C01          0.0000     0.0000     0.0000 c3         1 7FX       0.091000
      2 C02          2.0540     0.0000     1.4420 c3         1 7FX       0.042000
      3 C03          0.2020     1.6350     1.7990 cc         1 7FX       0.074300
      4 C04          3.5630     0.2560     1.4410 c3         1 7FX       0.615900
      5 C05          1.5320     0.0000     0.0000 c3         1 7FX      -0.123400
      6 C06         -0.1270     2.5710     2.7140 cc         1 7FX      -0.333300
      7 C07          0.8700     2.5740     3.6970 cc         1 7FX       0.347200
      8 N08         -0.4700     1.2480     0.6350 n          1 7FX      -0.374000
      9 N09          1.7680     1.6710     3.3820 nd         1 7FX      -0.492800
     10 N13          1.3780     1.0620     2.1910 na         1 7FX       0.023400
     11 C14         -2.0900     1.5840    -1.1630 ca         1 7FX      -0.179600
     12 C15         -2.4890     0.2620    -1.3810 ca         1 7FX      -0.077000
     13 C16         -3.0540    -0.0970    -2.5820 ca         1 7FX      -0.182000
     14 C17         -3.2310     0.8540    -3.5840 ca         1 7FX       0.156100
     15 C18         -2.8400     2.1680    -3.3780 ca         1 7FX      -0.226000
     16 C19         -2.2750     2.5410    -2.1710 ca         1 7FX       0.189100
     17 O20         -1.8920     3.8270    -1.9680 oh         1 7FX      -0.494100
     18 O21         -3.7840     0.4900    -4.7690 oh         1 7FX      -0.519100
     19 C22         -1.4850     1.9710     0.1230 c          1 7FX       0.699700
     20 O23         -1.9000     2.9450     0.7220 o          1 7FX      -0.557100
     21 F10          3.8250     1.4970     0.8500 f          1 7FX      -0.214300
     22 F11          4.0370     0.2560     2.7560 f          1 7FX      -0.214300
     23 F12          4.2060    -0.7520     0.7130 f          1 7FX      -0.214300
     24 H1          -0.3400    -0.0080    -1.0280 h1         1 7FX       0.070700
     25 H2          -0.3400    -0.8360     0.5990 h1         1 7FX       0.070700
     26 H3           1.8430    -0.9580     1.9020 h1         1 7FX       0.091700
     27 H4           1.8680     0.9120    -0.4790 hc         1 7FX       0.086200
     28 H5           1.8680    -0.9120    -0.4790 hc         1 7FX       0.086200
     29 H6          -1.0050     3.2050     2.6920 ha         1 7FX       0.191000
     30 H7           0.8960     3.2140     4.5710 h4         1 7FX       0.054100
     31 H8          -2.3500    -0.4810    -0.6040 ha         1 7FX       0.144000
     32 H9          -3.3620    -1.1230    -2.7500 ha         1 7FX       0.149000
     33 H10         -2.9830     2.9040    -4.1600 ha         1 7FX       0.154000
     34 H11         -2.6110     4.4050    -2.1660 ho         1 7FX       0.436000
     35 H12         -3.1020     0.2590    -5.3770 ho         1 7FX       0.428000
@<TRIPOS>BOND
     1    18    14 1
     2    14    15 ar
     3    14    13 ar
     4    15    16 ar
     5    13    12 ar
     6     7     6 1
     7     7     9 2
     8     6     3 2
     9    16    17 1
    10    16    11 ar
    11     9    10 1
    12    12    11 ar
    13    11    19 1
    14     3    10 1
    15     3     8 1
    16    10     2 1
    17    22     4 1
    18    19     8 1
    19    19    20 2
    20     8     1 1
    21     2     4 1
    22     2     5 1
    23     4    21 1
    24     4    23 1
    25     1     5 1
    26     1    24 1
    27     1    25 1
    28     2    26 1
    29     5    27 1
    30     5    28 1
    31     6    29 1
    32     7    30 1
    33    12    31 1
    34    13    32 1
    35    15    33 1
    36    17    34 1
    37    18    35 1
@<TRIPOS>SUBSTRUCTURE
     1 7FX         1 TEMP              0 ****  ****    0 ROOT
