@<TRIPOS>MOLECULE
molecule
   39    41     1     0     0
SMALL
bcc


@<TRIPOS>ATOM
      1 CAG          0.0000     0.0000     0.0000 c3         1 7FY      -0.141200
      2 CAW          1.5150     0.0000     0.0000 c          1 7FY       0.485100
      3 OAD          2.1590     0.0010    -1.0220 o          1 7FY      -0.466100
      4 CAR          2.1630     0.0000     1.3570 c          1 7FY       0.480100
      5 OAA          3.0050    -0.8090     1.6690 o          1 7FY      -0.467100
      6 CAE          1.6900     1.0820     2.3060 c3         1 7FY      -0.111200
      7 CAF          0.2180     1.3000     2.1160 c2         1 7FY      -0.280200
      8 CAS         -0.4980     0.8520     1.1300 c2         1 7FY       0.136800
      9 NAQ         -1.8440     1.1930     1.1200 nu         1 7FY      -0.762900
     10 SAX         -2.4700     2.1290     2.3340 sy         1 7FY       1.422200
     11 OAB         -3.8400     2.3370     2.0140 o          1 7FY      -0.625300
     12 OAC         -2.0380     1.5460     3.5550 o          1 7FY      -0.625300
     13 CAV         -1.6910     3.7060     2.2310 ca         1 7FY      -0.322500
     14 CAP         -0.6110     3.9940     3.0450 ca         1 7FY      -0.024000
     15 CAN          0.0030     5.2290     2.9680 ca         1 7FY      -0.146500
     16 CAO         -2.1590     4.6490     1.3330 ca         1 7FY      -0.024000
     17 CAM         -1.5530     5.8850     1.2490 ca         1 7FY      -0.146500
     18 CAU         -0.4670     6.1840     2.0690 cp         1 7FY       0.033000
     19 CAT          0.1890     7.5120     1.9830 cp         1 7FY      -0.058000
     20 CAK          1.2820     7.8060     2.7970 ca         1 7FY      -0.108500
     21 CAI          1.8880     9.0430     2.7120 ca         1 7FY      -0.128000
     22 CAH          1.4140     9.9900     1.8230 ca         1 7FY      -0.115000
     23 CAJ          0.3290     9.7030     1.0130 ca         1 7FY      -0.128000
     24 CAL         -0.2810     8.4670     1.0840 ca         1 7FY      -0.108500
     25 H1          -0.3600    -1.0140     0.1280 hc         1 7FY       0.090200
     26 H2          -0.3600     0.4020    -0.9390 hc         1 7FY       0.090200
     27 H3           2.2210     2.0030     2.0970 hc         1 7FY       0.086200
     28 H4           1.8800     0.7730     3.3270 hc         1 7FY       0.086200
     29 H5          -0.2950     1.8840     2.8710 ha         1 7FY       0.156000
     30 H6          -2.4430     0.8460     0.3970 hn         1 7FY       0.462800
     31 H7          -0.2460     3.2510     3.7430 ha         1 7FY       0.152500
     32 H8           0.8480     5.4540     3.6070 ha         1 7FY       0.142000
     33 H9          -3.0030     4.4160     0.6950 ha         1 7FY       0.152500
     34 H10         -1.9210     6.6230     0.5470 ha         1 7FY       0.142000
     35 H11          1.6540     7.0660     3.4940 ha         1 7FY       0.134000
     36 H12          2.7370     9.2730     3.3440 ha         1 7FY       0.134000
     37 H13          1.8910    10.9600     1.7620 ha         1 7FY       0.133000
     38 H14         -0.0370    10.4470     0.3160 ha         1 7FY       0.134000
     39 H15         -1.1300     8.2440     0.4490 ha         1 7FY       0.134000
@<TRIPOS>BOND
     1     5     4 2
     2     3     2 2
     3     4     2 1
     4     4     6 1
     5     2     1 1
     6     6     7 1
     7     1     8 1
     8     7     8 2
     9     8     9 1
    10     9    10 1
    11    11    10 2
    12    10    13 1
    13    10    12 2
    14    14    13 ar
    15    14    15 ar
    16    13    16 ar
    17    15    18 ar
    18    16    17 ar
    19    18    17 ar
    20    18    19 1
    21    19    24 ar
    22    19    20 ar
    23    24    23 ar
    24    20    21 ar
    25    23    22 ar
    26    21    22 ar
    27     1    25 1
    28     1    26 1
    29     6    27 1
    30     6    28 1
    31     7    29 1
    32     9    30 1
    33    14    31 1
    34    15    32 1
    35    16    33 1
    36    17    34 1
    37    20    35 1
    38    21    36 1
    39    22    37 1
    40    23    38 1
    41    24    39 1
@<TRIPOS>SUBSTRUCTURE
     1 7FY         1 TEMP              0 ****  ****    0 ROOT
