@<TRIPOS>MOLECULE
molecule
   37    39     1     0     0
SMALL
bcc


@<TRIPOS>ATOM
      1 O01          0.0000     0.0000     0.0000 oh         1 7FZ      -0.519100
      2 C02          1.3590     0.0000     0.0000 ca         1 7FZ       0.100100
      3 C03          2.0520     0.0000     1.2030 ca         1 7FZ      -0.099300
      4 C04          1.2950     0.0060     2.5070 c3         1 7FZ      -0.041800
      5 C05          3.4300    -0.0070     1.2060 ca         1 7FZ      -0.113500
      6 C06          4.1290    -0.0120    -0.0000 cp         1 7FZ      -0.034000
      7 C07          5.6130    -0.0190    -0.0000 cp         1 7FZ      -0.027000
      8 C08          6.3120    -0.0240    -1.2040 ca         1 7FZ      -0.110000
      9 C09          7.6950    -0.0310    -1.2030 ca         1 7FZ      -0.083300
     10 C10          8.6740    -0.0390    -2.3570 c3         1 7FZ      -0.036100
     11 C11         10.0180    -0.4850    -1.7430 c3         1 7FZ      -0.099400
     12 C12          9.8760    -0.0400    -0.2720 c3         1 7FZ       0.191400
     13 O13         10.5300    -0.9700     0.5920 oh         1 7FZ      -0.595800
     14 C14          8.3840    -0.0320    -0.0040 ca         1 7FZ      -0.096300
     15 C15          7.6920    -0.0270     1.1960 ca         1 7FZ      -0.092000
     16 C16          6.3120    -0.0150     1.2040 ca         1 7FZ      -0.125000
     17 C17          3.4310    -0.0110    -1.2070 ca         1 7FZ      -0.113500
     18 C18          2.0510    -0.0050    -1.2030 ca         1 7FZ      -0.099300
     19 C19          1.2960    -0.0100    -2.5070 c3         1 7FZ      -0.041800
     20 H1          -0.3140     0.8890    -0.0030 ho         1 7FZ       0.417000
     21 H2           1.9930    -0.0950     3.3300 hc         1 7FZ       0.045367
     22 H3           0.7530     0.9380     2.6060 hc         1 7FZ       0.045367
     23 H4           0.5960    -0.8220     2.5230 hc         1 7FZ       0.045367
     24 H5           3.9700    -0.0070     2.1460 ha         1 7FZ       0.137000
     25 H6           5.7720    -0.0190    -2.1430 ha         1 7FZ       0.133000
     26 H7           8.3550    -0.7450    -3.1140 hc         1 7FZ       0.054200
     27 H8           8.7660     0.9560    -2.7760 hc         1 7FZ       0.054200
     28 H9          10.1120    -1.5620    -1.7980 hc         1 7FZ       0.061200
     29 H10         10.8360     0.0460    -2.2140 hc         1 7FZ       0.061200
     30 H11         10.2840     0.9550    -0.1410 h1         1 7FZ       0.042700
     31 H12         11.3390    -0.5970     0.9010 ho         1 7FZ       0.399000
     32 H13          8.2360    -0.0240     2.1330 ha         1 7FZ       0.135000
     33 H14          5.7760     0.0770     2.1410 ha         1 7FZ       0.135000
     34 H15          3.9710    -0.0150    -2.1460 ha         1 7FZ       0.137000
     35 H16          0.5970    -0.8370    -2.5160 hc         1 7FZ       0.045367
     36 H17          0.7530     0.9220    -2.6130 hc         1 7FZ       0.045367
     37 H18          1.9930    -0.1170    -3.3280 hc         1 7FZ       0.045367
@<TRIPOS>BOND
     1    13    12 1   
     2    12    11 1   
     3    12    14 1   
     4    11    10 1   
     5    14    15 ar  
     6    14     9 ar  
     7    15    16 ar  
     8    10     9 1   
     9     9     8 ar  
    10    16     7 ar  
    11     8     7 ar  
    12     7     6 1   
    13     5     6 ar  
    14     5     3 ar  
    15     6    17 ar  
    16     4     3 1   
    17     3     2 ar  
    18    17    18 ar  
    19     2    18 ar  
    20     2     1 1   
    21    18    19 1   
    22     1    20 1   
    23     4    21 1   
    24     4    22 1   
    25     4    23 1   
    26     5    24 1   
    27     8    25 1   
    28    10    26 1   
    29    10    27 1   
    30    11    28 1   
    31    11    29 1   
    32    12    30 1   
    33    13    31 1   
    34    15    32 1   
    35    16    33 1   
    36    17    34 1   
    37    19    35 1   
    38    19    36 1   
    39    19    37 1   
@<TRIPOS>SUBSTRUCTURE
     1 7FZ         1 TEMP              0 ****  ****    0 ROOT
