@<TRIPOS>MOLECULE
molecule
   40    42     1     0     0
SMALL
bcc


@<TRIPOS>ATOM
      1 C01          0.0000     0.0000     0.0000 ca         1 7G0      -0.150500
      2 C02          1.3870     0.0000     0.0000 ca         1 7G0       0.099100
      3 C03          2.0790     0.0000     1.2030 ca         1 7G0      -0.150500
      4 C04          1.3850     0.0010     2.3970 ca         1 7G0      -0.113000
      5 C05          0.0020     0.0010     2.3940 ca         1 7G0      -0.085300
      6 C06         -0.6900     0.0070     1.1970 ca         1 7G0      -0.113000
      7 O01          2.0680    -0.0010    -1.1760 oh         1 7G0      -0.523100
      8 C07         -0.7530     0.0010     3.6990 c3         1 7G0      -0.022400
      9 C08         -1.6150    -1.2700     3.7800 c3         1 7G0      -0.065400
     10 C09         -2.3860    -1.2070     5.0850 c3         1 7G0      -0.073700
     11 C10         -3.3450     0.0100     4.9900 c3         1 7G0      -0.072000
     12 C11         -2.4910     1.2630     5.0380 c3         1 7G0      -0.064400
     13 C12         -1.6080     1.2610     3.7800 c3         1 7G0      -0.075400
     14 C13         -3.3550    -2.3670     5.3450 c3         1 7G0      -0.073400
     15 C14         -4.3650    -1.7580     6.3550 c3         1 7G0      -0.103400
     16 C15         -4.3050    -0.2060     6.1540 c3         1 7G0       0.153100
     17 O02         -5.6010     0.3010     5.8270 oh         1 7G0      -0.600800
     18 C16         -4.1140    -0.0390     3.6680 c3         1 7G0      -0.077100
     19 H1          -0.5420     0.0030    -0.9380 ha         1 7G0       0.139000
     20 H2           3.1630     0.0000     1.2060 ha         1 7G0       0.139000
     21 H3           1.9240    -0.0020     3.3370 ha         1 7G0       0.134000
     22 H4          -1.7730     0.0070     1.1970 ha         1 7G0       0.134000
     23 H5           2.2350     0.8870    -1.4440 ho         1 7G0       0.418000
     24 H6          -0.0480     0.0010     4.5210 hc         1 7G0       0.053700
     25 H7          -2.3060    -1.3000     2.9460 hc         1 7G0       0.052200
     26 H8          -0.9790    -2.1470     3.7710 hc         1 7G0       0.052200
     27 H9          -1.7070    -1.0870     5.9210 hc         1 7G0       0.053700
     28 H10         -3.1260     2.1400     5.0410 hc         1 7G0       0.043700
     29 H11         -1.8680     1.2480     5.9240 hc         1 7G0       0.043700
     30 H12         -2.2440     1.3130     2.9040 hc         1 7G0       0.047700
     31 H13         -0.9580     2.1270     3.8030 hc         1 7G0       0.047700
     32 H14         -3.8570    -2.6560     4.4300 hc         1 7G0       0.048200
     33 H15         -2.8330    -3.2080     5.7870 hc         1 7G0       0.048200
     34 H16         -5.3640    -2.1210     6.1450 hc         1 7G0       0.050200
     35 H17         -4.0750    -2.0120     7.3670 hc         1 7G0       0.050200
     36 H18         -3.9220     0.2730     7.0470 h1         1 7G0       0.033700
     37 H19         -5.9740     0.7220     6.5830 ho         1 7G0       0.397000
     38 H20         -3.4250     0.1070     2.8440 hc         1 7G0       0.041367
     39 H21         -4.5980    -1.0020     3.5670 hc         1 7G0       0.041367
     40 H22         -4.8620     0.7450     3.6560 hc         1 7G0       0.041367
@<TRIPOS>BOND
     1    17    16 1   
     2    15    16 1   
     3    15    14 1   
     4    16    11 1   
     5    18    11 1   
     6    14    10 1   
     7    11    10 1   
     8    11    12 1   
     9    10     9 1   
    10    12    13 1   
    11     9     8 1   
    12    13     8 1   
    13     8     5 1   
    14     6     5 ar  
    15     6     1 ar  
    16     5     4 ar  
    17     1     2 ar  
    18     4     3 ar  
    19     2     3 ar  
    20     2     7 1   
    21     1    19 1   
    22     3    20 1   
    23     4    21 1   
    24     6    22 1   
    25     7    23 1   
    26     8    24 1   
    27     9    25 1   
    28     9    26 1   
    29    10    27 1   
    30    12    28 1   
    31    12    29 1   
    32    13    30 1   
    33    13    31 1   
    34    14    32 1   
    35    14    33 1   
    36    15    34 1   
    37    15    35 1   
    38    16    36 1   
    39    17    37 1   
    40    18    38 1   
    41    18    39 1   
    42    18    40 1   
@<TRIPOS>SUBSTRUCTURE
     1 7G0         1 TEMP              0 ****  ****    0 ROOT
