@<TRIPOS>MOLECULE
7G2
   28    30     1     0     0
SMALL
bcc


@<TRIPOS>ATOM
      1 O01          0.0000     0.0000     0.0000 oh         1 7G2      -0.240000
      2 C02          1.3590     0.0000     0.0000 ca         1 7G2       0.052000
      3 C03          2.0520     0.0000     1.2020 ca         1 7G2      -0.115000
      4 C04          3.4310     0.0010     1.2050 ca         1 7G2      -0.097000
      5 C05          4.1310     0.0000    -0.0000 ca         1 7G2      -0.018000
      6 C06          5.6140     0.0010     0.0010 c2         1 7G2      -0.085000
      7 C07          6.3100     0.0060    -1.2040 c2         1 7G2       0.014000
      8 C08          7.7050     0.0060    -1.1970 c3         1 7G2      -0.174000
      9 C09          8.4500     0.0130    -2.4700 c2         1 7G2      -0.394000
     10 N10          9.7440     0.0130    -2.4610 n2         1 7G2       0.106000
     11 O11         10.4600     0.0190    -3.6830 oh         1 7G2      -0.232000
     12 C12          8.3940     0.0010     0.0230 c2         1 7G2       0.108000
     13 O13          9.7520     0.0020     0.0360 oh         1 7G2      -0.221000
     14 C14          7.6900    -0.0040     1.2170 c2         1 7G2      -0.200000
     15 C15          6.3100     0.0010     1.2090 c2         1 7G2      -0.027000
     16 C16          3.4330    -0.0010    -1.2080 ca         1 7G2      -0.118000
     17 C17          2.0530    -0.0070    -1.2050 ca         1 7G2       0.051000
     18 F18          1.3760    -0.0130    -2.3740 f          1 7G2      -0.084000
     19 H1          -0.3140     0.8810     0.1200 ho         1 7G2       0.205000
     20 H2           1.5090     0.0010     2.1390 ha         1 7G2       0.118000
     21 H3           3.9710     0.0010     2.1440 ha         1 7G2       0.114000
     22 H4           5.7730     0.1060    -2.1390 ha         1 7G2       0.135000
     23 H5           8.3000    -0.8650    -1.8530 DU         1 7G2       0.324000
     24 H6          11.3700     0.1980    -3.5130 ho         1 7G2       0.205000
     25 H7          10.0600     0.5660     0.7260 ho         1 7G2       0.211000
     26 H8           8.2250    -0.0060     2.1590 ha         1 7G2       0.116000
     27 H9           5.7650    -0.0030     2.1460 ha         1 7G2       0.113000
     28 H10          3.9740    -0.0040    -2.1460 ha         1 7G2       0.133000
@<TRIPOS>BOND
     1     1     2 1   
     2     1    19 1   
     3     2     3 1   
     4     2    17 1   
     5     3     4 1   
     6     3    20 1   
     7     4     5 1   
     8     4    21 1   
     9     5     6 1   
    10     5    16 1   
    11     6     7 1   
    12     6    15 1   
    13     7     8 1   
    14     7    22 1   
    15     8     9 1   
    16     8    12 1   
    17     8    23 1   
    18     9    10 1   
    19     9    23 1   
    20    10    11 1   
    21    11    24 1   
    22    12    13 1   
    23    12    14 1   
    24    13    25 1   
    25    14    15 1   
    26    14    26 1   
    27    15    27 1   
    28    16    17 1   
    29    16    28 1   
    30    17    18 1   
@<TRIPOS>SUBSTRUCTURE
     1 7G2         1 TEMP              0 ****  ****    0 ROOT
