@<TRIPOS>MOLECULE
molecule
   28    29     1     0     0
SMALL
bcc


@<TRIPOS>ATOM
      1 O01          0.0000     0.0000     0.0000 oh         1 7G2      -0.507100
      2 C02          1.3590     0.0000     0.0000 ca         1 7G2       0.067100
      3 C03          2.0520     0.0000     1.2020 ca         1 7G2      -0.129000
      4 C04          3.4310     0.0010     1.2050 ca         1 7G2      -0.127000
      5 C05          4.1310     0.0000    -0.0000 cp         1 7G2      -0.010000
      6 C06          5.6140     0.0010     0.0010 cp         1 7G2      -0.071000
      7 C07          6.3100     0.0060    -1.2040 ca         1 7G2      -0.068000
      8 C08          7.7050     0.0060    -1.1970 ca         1 7G2      -0.152900
      9 C09          8.4500     0.0130    -2.4700 ce         1 7G2       0.423800
     10 N10          9.7440     0.0130    -2.4610 n2         1 7G2      -0.405200
     11 O11         10.4600     0.0190    -3.6830 oh         1 7G2      -0.396500
     12 C12          8.3940     0.0010     0.0230 ca         1 7G2       0.163100
     13 O13          9.7520     0.0020     0.0360 oh         1 7G2      -0.475100
     14 C14          7.6900    -0.0040     1.2170 ca         1 7G2      -0.208000
     15 C15          6.3100     0.0010     1.2090 ca         1 7G2      -0.074000
     16 C16          3.4330    -0.0010    -1.2080 ca         1 7G2      -0.156000
     17 C17          2.0530    -0.0070    -1.2050 ca         1 7G2       0.121900
     18 F18          1.3760    -0.0130    -2.3740 f          1 7G2      -0.129900
     19 H1          -0.3140     0.8810     0.1200 ho         1 7G2       0.422000
     20 H2           1.5090     0.0010     2.1390 ha         1 7G2       0.147000
     21 H3           3.9710     0.0010     2.1440 ha         1 7G2       0.139000
     22 H4           5.7720     0.1050    -2.1390 ha         1 7G2       0.144000
     23 H5           7.9150     0.0170    -3.4110 h4         1 7G2       0.001800
     24 H6          11.3850    -0.0260    -3.5060 ho         1 7G2       0.432000
     25 H7          10.0600     0.5700     0.7230 ho         1 7G2       0.420000
     26 H8           8.2250    -0.0060     2.1590 ha         1 7G2       0.140000
     27 H9           5.7650    -0.0030     2.1460 ha         1 7G2       0.138000
     28 H10          3.9740    -0.0040    -2.1460 ha         1 7G2       0.151000
@<TRIPOS>BOND
     1     1     2 1
     2     3     2 ar
     3     3     4 ar
     4     2    17 ar
     5     4     5 ar
     6    17    18 1
     7    17    16 ar
     8     5    16 ar
     9     5     6 1
    10     6    15 ar
    11     6     7 ar
    12    15    14 ar
    13     7     8 ar
    14    14    12 ar
    15     8    12 ar
    16     8     9 1
    17    12    13 1
    18     9    10 2
    19    10    11 1
    20     1    19 1
    21     3    20 1
    22     4    21 1
    23     7    22 1
    24     9    23 1
    25    11    24 1
    26    13    25 1
    27    14    26 1
    28    15    27 1
    29    16    28 1
@<TRIPOS>SUBSTRUCTURE
     1 7G2         1 TEMP              0 ****  ****    0 ROOT
