@<TRIPOS>MOLECULE
molecule
   28    29     1     0     0
SMALL
bcc


@<TRIPOS>ATOM
      1 O01          0.0000     0.0000     0.0000 oh         1 7G3      -0.521100
      2 C02          1.3590     0.0000     0.0000 ca         1 7G3       0.110100
      3 C03          2.0510     0.0000     1.2040 ca         1 7G3      -0.149500
      4 C04          3.4300     0.0000     1.2070 ca         1 7G3      -0.106000
      5 C05          4.1280     0.0010     0.0010 cp         1 7G3      -0.048000
      6 C06          5.6130     0.0000     0.0020 cp         1 7G3      -0.067000
      7 C07          6.3080     0.0010    -1.2030 ca         1 7G3      -0.062000
      8 C08          7.7020     0.0020    -1.1970 ca         1 7G3      -0.282900
      9 C09          8.4470     0.0030    -2.4700 ce         1 7G3       0.196800
     10 N10          7.8530    -0.3370    -3.5680 n2         1 7G3      -0.324200
     11 O11          6.5400    -0.8650    -3.5280 oh         1 7G3      -0.462500
     12 C12          8.3920     0.0020     0.0230 ca         1 7G3       0.164100
     13 O13          9.7500     0.0030     0.0340 oh         1 7G3      -0.504100
     14 C14          7.6890     0.0010     1.2180 ca         1 7G3      -0.194000
     15 C15          6.3100     0.0060     1.2100 ca         1 7G3      -0.061000
     16 C16          3.4310     0.0010    -1.2050 ca         1 7G3      -0.106000
     17 C17          2.0520    -0.0040    -1.2030 ca         1 7G3      -0.149500
     18 H1          -0.3140     0.8890    -0.0020 ho         1 7G3       0.421000
     19 H2           1.5070    -0.0010     2.1410 ha         1 7G3       0.143500
     20 H3           3.9700     0.0000     2.1460 ha         1 7G3       0.138500
     21 H4           5.7710     0.1060    -2.1380 ha         1 7G3       0.183000
     22 H5           8.3290    -0.9080    -1.8950 h4         1 7G3       0.247800
     23 H6           6.3380    -1.2690    -4.3560 ho         1 7G3       0.426000
     24 H7          10.0610     0.8230     0.3810 ho         1 7G3       0.437000
     25 H8           8.2240     0.0030     2.1600 ha         1 7G3       0.147000
     26 H9           5.7650     0.0050     2.1470 ha         1 7G3       0.142000
     27 H10          3.9710    -0.0000    -2.1440 ha         1 7G3       0.138500
     28 H11          1.5090    -0.0040    -2.1400 ha         1 7G3       0.143500
@<TRIPOS>BOND
     1     1     2 1   
     2     2     3 ar  
     3     2    17 ar  
     4     3     4 ar  
     5    17    16 ar  
     6     4     5 ar  
     7    16     5 ar  
     8     5     6 1   
     9     6     7 ar  
    10     6    15 ar  
    11     7     8 ar  
    12    15    14 ar  
    13     8     9 1   
    14     8    12 ar  
    15     9    10 2   
    16    14    12 ar  
    17    12    13 1   
    18    10    11 1   
    19     1    18 1   
    20     3    19 1   
    21     4    20 1   
    22     7    21 1   
    23     9    22 1   
    24    11    23 1   
    25    13    24 1   
    26    14    25 1   
    27    15    26 1   
    28    16    27 1   
    29    17    28 1   
@<TRIPOS>SUBSTRUCTURE
     1 7G3         1 TEMP              0 ****  ****    0 ROOT
