@<TRIPOS>MOLECULE
7G3
   28    29     1     0     0
SMALL
bcc


@<TRIPOS>ATOM
      1 O01          0.0000     0.0000     0.0000 oh         1 7G3      -0.501100
      2 C02          1.3590     0.0000     0.0000 ca         1 7G3       0.123100
      3 C03          2.0510     0.0000     1.2040 ca         1 7G3      -0.134500
      4 C04          3.4300     0.0000     1.2070 ca         1 7G3      -0.082000
      5 C05          4.1280     0.0010     0.0010 cp         1 7G3      -0.043000
      6 C06          5.6130     0.0000     0.0020 cp         1 7G3      -0.055000
      7 C07          6.3080     0.0010    -1.2030 ca         1 7G3      -0.054000
      8 C08          7.7020     0.0020    -1.1970 ca         1 7G3      -0.209900
      9 C09          8.4470     0.0030    -2.4700 ce         1 7G3       0.474800
     10 N10          7.8530    -0.3370    -3.5680 n2         1 7G3      -0.413200
     11 O11          6.5400    -0.8650    -3.5280 oh         1 7G3      -0.376500
     12 C12          8.3920     0.0020     0.0230 ca         1 7G3       0.155100
     13 O13          9.7500     0.0030     0.0340 oh         1 7G3      -0.496100
     14 C14          7.6890     0.0010     1.2180 ca         1 7G3      -0.167000
     15 C15          6.3100     0.0060     1.2100 ca         1 7G3      -0.061000
     16 C16          3.4310     0.0010    -1.2050 ca         1 7G3      -0.082000
     17 C17          2.0520    -0.0040    -1.2030 ca         1 7G3      -0.134500
     18 H1          -0.3140     0.8890    -0.0020 ho         1 7G3       0.402000
     19 H2           1.5070    -0.0010     2.1410 ha         1 7G3       0.114000
     20 H3           3.9700     0.0000     2.1460 ha         1 7G3       0.114000
     21 H4           5.7710     0.1050    -2.1380 ha         1 7G3       0.150000
     22 H5           9.4520     0.4060    -2.5040 h4         1 7G3       0.008800
     23 H6           6.3580    -1.3160    -4.3360 ho         1 7G3       0.410000
     24 H7          10.0620    -0.7790     0.4590 ho         1 7G3       0.407000
     25 H8           8.2240     0.0030     2.1600 ha         1 7G3       0.114000
     26 H9           5.7650     0.0050     2.1470 ha         1 7G3       0.111000
     27 H10          3.9710    -0.0000    -2.1440 ha         1 7G3       0.114000
     28 H11          1.5090    -0.0040    -2.1400 ha         1 7G3       0.114000
@<TRIPOS>BOND
     1     1     2 1   
     2     1    18 1   
     3     2     3 ar  
     4     2    17 ar  
     5     3     4 ar  
     6     3    19 1   
     7     4     5 ar  
     8     4    20 1   
     9     5     6 1   
    10     5    16 ar  
    11     6     7 ar  
    12     6    15 ar  
    13     7     8 ar  
    14     7    21 1   
    15     8     9 1   
    16     8    12 ar  
    17     9    10 2   
    18     9    22 1   
    19    10    11 1   
    20    11    23 1   
    21    12    13 1   
    22    12    14 ar  
    23    13    24 1   
    24    14    15 ar  
    25    14    25 1   
    26    15    26 1   
    27    16    17 ar  
    28    16    27 1   
    29    17    28 1   
@<TRIPOS>SUBSTRUCTURE
     1 7G3         1 TEMP              0 ****  ****    0 ROOT
