@<TRIPOS>MOLECULE
molecule
   35    37     1     0     0
SMALL
bcc


@<TRIPOS>ATOM
      1 C01          0.0000     0.0000     0.0000 ca         1 7G5      -0.095750
      2 C02          1.3780     0.0000     0.0000 ca         1 7G5      -0.152500
      3 C03          2.0750     0.0000     1.2020 ca         1 7G5       0.113100
      4 O01          3.4330     0.0000     1.1970 oh         1 7G5      -0.521100
      5 C04          1.3870     0.0010     2.4090 ca         1 7G5      -0.152500
      6 C05          0.0090     0.0010     2.4190 ca         1 7G5      -0.095750
      7 C06         -0.6960     0.0060     1.2130 ca         1 7G5      -0.060800
      8 C07         -2.1700     0.0060     1.2180 ce         1 7G5      -0.045400
      9 C08         -2.9620    -1.1620     1.7600 c3         1 7G5      -0.137900
     10 S01         -4.6400    -0.8880     1.0670 s6         1 7G5       1.068000
     11 O02         -4.7530    -1.5440    -0.1880 o          1 7G5      -0.602300
     12 O03         -5.6220    -1.0920     2.0730 o          1 7G5      -0.602300
     13 C09         -4.3730     0.9100     0.8110 c3         1 7G5      -0.137900
     14 C10         -2.8660     1.0320     0.7530 cf         1 7G5      -0.045400
     15 C11         -2.2070     2.2270     0.2000 ca         1 7G5      -0.060800
     16 C12         -1.4310     3.0460     1.0260 ca         1 7G5      -0.095750
     17 C13         -0.8160     4.1630     0.5060 ca         1 7G5      -0.152500
     18 C14         -0.9670     4.4770    -0.8390 ca         1 7G5       0.113100
     19 O04         -0.3590     5.5800    -1.3490 oh         1 7G5      -0.521100
     20 C15         -1.7360     3.6680    -1.6650 ca         1 7G5      -0.152500
     21 C16         -2.3500     2.5440    -1.1530 ca         1 7G5      -0.095750
     22 H1          -0.5430     0.0020    -0.9380 ha         1 7G5       0.139000
     23 H2           1.9190    -0.0050    -0.9390 ha         1 7G5       0.144250
     24 H3           3.7480    -0.8890     1.1960 ho         1 7G5       0.420500
     25 H4           1.9340    -0.0010     3.3440 ha         1 7G5       0.144250
     26 H5          -0.5260     0.0030     3.3610 ha         1 7G5       0.139000
     27 H6          -2.9890    -1.1340     2.8430 h1         1 7G5       0.114700
     28 H7          -2.5520    -2.0990     1.4050 h1         1 7G5       0.114700
     29 H8          -4.8170     1.2320    -0.1240 h1         1 7G5       0.114700
     30 H9          -4.7680     1.4760     1.6450 h1         1 7G5       0.114700
     31 H10         -1.3130     2.8020     2.0750 ha         1 7G5       0.139000
     32 H11         -0.2150     4.7980     1.1460 ha         1 7G5       0.144250
     33 H12         -0.9370     6.3210    -1.2740 ho         1 7G5       0.420500
     34 H13         -1.8480     3.9150    -2.7130 ha         1 7G5       0.144250
     35 H14         -2.9500     1.9130    -1.7980 ha         1 7G5       0.139000
@<TRIPOS>BOND
     1    11    10 2
     2    10    13 1
     3    10    12 2
     4    10     9 1
     5    13    14 1
     6    14    15 1
     7    14     8 2
     8    16    15 ar
     9    16    17 ar
    10     9     8 1
    11    15    21 ar
    12    17    18 ar
    13     8     7 1
    14    21    20 ar
    15    18    20 ar
    16    18    19 1
    17     7     6 ar
    18     7     1 ar
    19     6     5 ar
    20     1     2 ar
    21     5     3 ar
    22     2     3 ar
    23     3     4 1
    24     1    22 1
    25     2    23 1
    26     4    24 1
    27     5    25 1
    28     6    26 1
    29     9    27 1
    30     9    28 1
    31    13    29 1
    32    13    30 1
    33    16    31 1
    34    17    32 1
    35    19    33 1
    36    20    34 1
    37    21    35 1
@<TRIPOS>SUBSTRUCTURE
     1 7G5         1 TEMP              0 ****  ****    0 ROOT
