@<TRIPOS>MOLECULE
7G6
   80    86     1     0     0
SMALL
bcc


@<TRIPOS>ATOM
      1 C1           0.0000     0.0000     0.0000 ca         1 7G6      -0.182000
      2 C2           1.3890     0.0000     0.0000 ca         1 7G6       0.016700
      3 C3           2.0940     0.0000     1.1840 ca         1 7G6      -0.124000
      4 C7           2.1020     0.0010     3.6840 cc         1 7G6      -0.184200
      5 C8           1.3870     0.0070     4.8210 cd         1 7G6      -0.124400
      6 C10         -0.7030     0.0110     3.6900 c          1 7G6       0.612100
      7 C11         -0.6500     0.0170     6.0560 ca         1 7G6      -0.103400
      8 C13          2.1330    -0.0010    -1.3100 cx         1 7G6      -0.071400
      9 C15          1.8920    -1.1770    -2.2590 cx         1 7G6      -0.074900
     10 C16          1.3160     0.2020    -2.5870 cx         1 7G6      -0.074900
     11 C19         -1.9790     0.0440     8.4920 ca         1 7G6      -0.078000
     12 C20         -1.6410     1.2320     7.8760 ca         1 7G6      -0.091000
     13 C21         -0.9790     1.2230     6.6630 ca         1 7G6      -0.073000
     14 C24         -2.0110    -2.4490     8.5530 cc         1 7G6      -0.122200
     15 N26         -3.6490    -4.0520     9.1380 n          1 7G6       0.128000
     16 C27         -2.7270    -4.8080     9.7610 c          1 7G6       0.572700
     17 C31         -0.1710    -6.4860    10.0090 ca         1 7G6       0.492200
     18 C33          0.8970    -8.5070    10.3370 ca         1 7G6       0.386200
     19 C34          0.3090    -9.0440     9.2020 ca         1 7G6      -0.153700
     20 C35         -0.5530    -8.2530     8.4420 ca         1 7G6      -0.053000
     21 C4          -0.7050     0.0050     1.1860 ca         1 7G6       0.199900
     22 C5          -0.0100     0.0060     2.3990 ca         1 7G6      -0.214600
     23 C6           1.4040     0.0000     2.3960 ca         1 7G6       0.031200
     24 N9           0.0210     0.0120     4.8270 n          1 7G6       0.194800
     25 O12         -1.9210     0.0170     3.7360 o          1 7G6      -0.658500
     26 F14         -2.0560     0.0120     1.1750 f          1 7G6      -0.110900
     27 C17         -0.9820    -1.1800     6.6700 ca         1 7G6      -0.063300
     28 C18         -1.6490    -1.1710     7.8930 ca         1 7G6      -0.007800
     29 O23          0.6760    -2.9000     6.4560 oh         1 7G6      -0.592800
     30 C25         -3.3050    -2.8840     8.5380 cd         1 7G6      -0.137400
     31 C28         -1.3740    -4.3980     9.7900 cd         1 7G6      -0.140200
     32 C29         -1.0180    -3.2220     9.1940 cc         1 7G6      -0.028000
     33 N30         -0.4110    -5.1830    10.4370 nu         1 7G6      -0.300700
     34 N32          0.6450    -7.2640    10.7020 nb         1 7G6      -0.622000
     35 C36         -0.7980    -6.9580     8.8590 ca         1 7G6      -0.247300
     36 N37          0.5820   -10.3640     8.8200 nh         1 7G6      -0.356000
     37 C38          1.5150   -11.0010     9.7590 c3         1 7G6       0.134800
     38 C39          1.7250   -12.4620     9.3530 c3         1 7G6       0.153300
     39 N40          2.2440   -12.5160     7.9790 n3         1 7G6      -0.549600
     40 C41          1.3110   -11.8790     7.0410 c3         1 7G6       0.153300
     41 C42          1.1010   -10.4180     7.4460 c3         1 7G6       0.134800
     42 C43          2.5300   -13.9000     7.5800 c3         1 7G6       0.189100
     43 C44         -5.0450    -4.4950     9.1070 c3         1 7G6       0.045300
     44 O45         -3.0570    -5.8550    10.2940 o          1 7G6      -0.687500
     45 H1          -0.5360    -0.0000    -0.9420 ha         1 7G6       0.134000
     46 H2           3.1770     0.0000     1.1730 ha         1 7G6       0.118000
     47 H3           3.1850    -0.0030     3.7190 ha         1 7G6       0.126000
     48 H4           1.9130     0.0070     5.7680 h4         1 7G6       0.134000
     49 H5           3.1350     0.4100    -1.3420 hc         1 7G6       0.063700
     50 H6           2.7450    -1.4800    -2.8530 hc         1 7G6       0.050200
     51 H7           1.1750    -1.9140    -1.9170 hc         1 7G6       0.050200
     52 H8           0.2470     0.3070    -2.4460 hc         1 7G6       0.050200
     53 H9           1.8170     0.7410    -3.3820 hc         1 7G6       0.050200
     54 H10         -2.4980     0.0560     9.4430 ha         1 7G6       0.110000
     55 H11         -1.8970     2.1750     8.3450 ha         1 7G6       0.109000
     56 H12         -0.7160     2.1590     6.1840 ha         1 7G6       0.113000
     57 H13         -0.6160    -2.3680     4.9410 h1         1 7G6       0.001700
     58 H14         -1.3500    -3.2430     6.2920 h1         1 7G6       0.001700
     59 H15          1.5690    -9.1140    10.9310 h4         1 7G6      -0.006900
     60 H16         -1.0260    -8.6480     7.5510 ha         1 7G6       0.112000
     61 H17          1.0050    -3.5690     5.8800 ho         1 7G6       0.395000
     62 H18         -4.0640    -2.2910     8.0420 h4         1 7G6       0.138000
     63 H19          0.0130    -2.8900     9.2050 ha         1 7G6       0.129000
     64 H20          0.1100    -4.8040    11.2030 hn         1 7G6       0.288800
     65 H21         -1.4610    -6.3160     8.2930 ha         1 7G6       0.118000
     66 H22          1.1020   -10.9620    10.7600 h1         1 7G6       0.022700
     67 H23          2.4640   -10.4800     9.7330 h1         1 7G6       0.022700
     68 H24          2.4370   -12.9240    10.0260 h1         1 7G6       0.014200
     69 H25          0.7790   -12.9880     9.4020 h1         1 7G6       0.014200
     70 H27          1.7240   -11.9180     6.0400 h1         1 7G6       0.014200
     71 H28          0.3610   -12.4000     7.0670 h1         1 7G6       0.014200
     72 H29          2.0460    -9.8910     7.3970 h1         1 7G6       0.022700
     73 H30          0.3880    -9.9560     6.7740 h1         1 7G6       0.022700
     74 H31          1.6150   -14.4810     7.6080 h1         1 7G6       0.000033
     75 H32          2.9330   -13.9100     6.5740 h1         1 7G6       0.000033
     76 H33          3.2520   -14.3320     8.2620 h1         1 7G6       0.000033
     77 H34         -5.6710    -3.6920     8.7370 h1         1 7G6       0.027700
     78 H35         -5.3600    -4.7670    10.1070 h1         1 7G6       0.027700
     79 H36         -5.1360    -5.3550     8.4540 h1         1 7G6       0.027700
     80 C22         -0.6210    -2.4900     6.0170 c3         1 7G6       0.264700
@<TRIPOS>BOND
     1     1     2 ar  
     2     1    21 ar  
     3     1    45 1   
     4     2     3 ar  
     5     2     8 1   
     6     3    23 ar  
     7     3    46 1   
     8     4     5 2   
     9     4    23 1   
    10     4    47 1   
    11     5    24 1   
    12     5    48 1   
    13     6    22 1   
    14     6    24 1   
    15     6    25 2   
    16     7    13 ar  
    17     7    24 1   
    18     7    27 ar  
    19     8     9 1   
    20     8    10 1   
    21     8    49 1   
    22     9    10 1   
    23     9    50 1   
    24     9    51 1   
    25    10    52 1   
    26    10    53 1   
    27    11    12 ar  
    28    11    28 ar  
    29    11    54 1   
    30    12    13 ar  
    31    12    55 1   
    32    13    56 1   
    33    14    28 1   
    34    14    30 2   
    35    14    32 1   
    36    15    16 1   
    37    15    30 1   
    38    15    43 1   
    39    16    31 1   
    40    16    44 2   
    41    17    33 1   
    42    17    34 ar  
    43    17    35 ar  
    44    18    19 ar  
    45    18    34 ar  
    46    18    59 1   
    47    19    20 ar  
    48    19    36 1   
    49    20    35 ar  
    50    20    60 1   
    51    21    22 ar  
    52    21    26 1   
    53    22    23 ar  
    54    27    28 ar  
    55    27    80 1   
    56    29    61 1   
    57    29    80 1   
    58    30    62 1   
    59    31    32 2   
    60    31    33 1   
    61    32    63 1   
    62    33    64 1   
    63    35    65 1   
    64    36    37 1   
    65    36    41 1   
    66    37    38 1   
    67    37    66 1   
    68    37    67 1   
    69    38    39 1   
    70    38    68 1   
    71    38    69 1   
    72    39    40 1   
    73    39    42 1   
    74    40    41 1   
    75    40    70 1   
    76    40    71 1   
    77    41    72 1   
    78    41    73 1   
    79    42    74 1   
    80    42    75 1   
    81    42    76 1   
    82    43    77 1   
    83    43    78 1   
    84    43    79 1   
    85    57    80 1   
    86    58    80 1   
@<TRIPOS>SUBSTRUCTURE
     1 7G6         1 TEMP              0 ****  ****    0 ROOT
