@<TRIPOS>MOLECULE
7G7
   83    88     1     0     0
SMALL
bcc


@<TRIPOS>ATOM
      1 C1           0.0000     0.0000     0.0000 ca         1 7G7      -0.076900
      2 C2           1.3980     0.0000     0.0000 ca         1 7G7      -0.234300
      3 C3           2.0710     0.0000     1.2050 ca         1 7G7       0.422200
      4 C9          -0.7620    -0.0060    -1.2730 cc         1 7G7       0.459200
      5 C11          0.1860    -0.0460     4.7610 c          1 7G7       0.588100
      6 C12         -0.5000    -0.0400     6.0570 ca         1 7G7      -0.184600
      7 C13         -1.9140     0.0090     6.0660 ca         1 7G7      -0.130900
      8 C14         -2.6200     0.0510     4.7850 cc         1 7G7       0.440800
      9 C16          0.2000    -0.0820     7.2640 ca         1 7G7       0.191900
     10 C19         -2.5960     0.0150     7.2830 ca         1 7G7      -0.099000
     11 C24         -1.6170    -0.0700    10.9270 c3         1 7G7       0.004567
     12 N26         -2.0700    -0.1250    -1.2490 nd         1 7G7      -0.507300
     13 C30         -0.0770     0.1200    -2.4980 cc         1 7G7      -0.218600
     14 C34         -0.4060     1.3060    -5.7360 ca         1 7G7       0.501200
     15 C35         -1.2600     2.3160    -5.3060 ca         1 7G7      -0.265300
     16 N4           1.4140     0.0010     2.3490 nb         1 7G7      -0.538000
     17 C5           0.0910     0.0000     2.3960 ca         1 7G7       0.373200
     18 C6          -0.6610    -0.0000     1.2290 ca         1 7G7      -0.162600
     19 O8          -2.6340    -1.3310     1.5170 oh         1 7G7      -0.575800
     20 N10         -0.5550     0.0010     3.6340 n          1 7G7       0.195700
     21 N15         -1.9490     0.0430     3.6720 nd         1 7G7      -0.507300
     22 C17         -0.4990    -0.0750     8.4560 ca         1 7G7      -0.154000
     23 C18         -1.8860    -0.0270     8.4630 ca         1 7G7      -0.024300
     24 F21          1.5500    -0.1290     7.2670 f          1 7G7      -0.105900
     25 C23         -3.5450    -1.2380     9.8500 c3         1 7G7       0.004567
     26 C25         -3.4590     1.2580     9.8860 c3         1 7G7       0.004567
     27 N27         -2.8120    -0.1320    -2.4360 n          1 7G7       0.162200
     28 C28         -2.1910    -0.0190    -3.6270 c          1 7G7       0.567700
     29 C29         -0.7810     0.1190    -3.6680 cd         1 7G7      -0.065200
     30 O32         -2.8390    -0.0270    -4.6610 o          1 7G7      -0.676500
     31 N33         -0.1190     0.2390    -4.8910 nu         1 7G7      -0.307700
     32 C36         -1.5360     3.3710    -6.1560 ca         1 7G7      -0.022000
     33 C37         -0.9470     3.3800    -7.4130 ca         1 7G7      -0.254600
     34 C38         -0.1100     2.3450    -7.7750 ca         1 7G7       0.447200
     35 N39          0.1330     1.3490    -6.9450 nb         1 7G7      -0.633000
     36 C40         -1.2210     4.5090    -8.3740 c3         1 7G7       0.020600
     37 C41          0.0940     5.2090    -8.7280 c3         1 7G7      -0.026400
     38 C42         -0.1820     6.3150    -9.7500 c3         1 7G7       0.155800
     39 N43         -0.7870     5.7310   -10.9540 n3         1 7G7      -0.544600
     40 C44         -2.0740     5.0940   -10.6460 c3         1 7G7       0.155800
     41 C45         -1.8560     3.9520    -9.6510 c3         1 7G7      -0.026400
     42 C46         -0.9380     6.7410   -12.0100 c3         1 7G7       0.187100
     43 H1           1.9460    -0.0010    -0.9340 ha         1 7G7       0.118000
     44 H2           3.1540     0.0000     1.2110 h4         1 7G7      -0.013900
     45 H3          -2.4950     0.6410     2.0990 h1         1 7G7       0.045200
     46 H4          -2.5660     0.3680     0.3530 h1         1 7G7       0.045200
     47 H5          -3.7020     0.0850     4.7640 h4         1 7G7       0.003800
     48 H6          -3.6690     0.1650     7.3020 ha         1 7G7       0.121000
     49 H7          -0.9640     0.7920    10.8740 hc         1 7G7       0.010033
     50 H8          -2.1250    -0.0800    11.8830 hc         1 7G7       0.010033
     51 H9          -1.0300    -0.9750    10.8210 hc         1 7G7       0.010033
     52 H10          1.0010     0.2240    -2.5110 ha         1 7G7       0.135000
     53 H11         -4.6910     0.5770    -1.8500 h1         1 7G7       0.028367
     54 H12         -4.5310    -1.1840    -1.8720 h1         1 7G7       0.028367
     55 H13         -4.6670    -0.2890    -3.3920 h1         1 7G7       0.028367
     56 H14         -1.7020     2.2770    -4.3170 ha         1 7G7       0.118000
     57 H15         -3.5770    -1.3380     1.5150 ho         1 7G7       0.382000
     58 H16          0.0420    -0.1070     9.3940 ha         1 7G7       0.142000
     59 H17         -2.9870    -2.1300     9.5890 hc         1 7G7       0.010033
     60 H18         -4.3440    -1.0900     9.1330 hc         1 7G7       0.010033
     61 H19         -3.9660    -1.3530    10.8410 hc         1 7G7       0.010033
     62 H20         -2.8480     2.1120     9.6190 hc         1 7G7       0.010033
     63 H21         -4.2690     1.1570     9.1740 hc         1 7G7       0.010033
     64 H22         -3.8660     1.4010    10.8790 hc         1 7G7       0.010033
     65 H23          0.5470    -0.4550    -5.1690 hn         1 7G7       0.296800
     66 H24         -2.1980     4.1720    -5.8480 ha         1 7G7       0.106000
     67 H25          0.3500     2.3470    -8.7560 h4         1 7G7      -0.012900
     68 H26         -1.8970     5.2220    -7.9180 hc         1 7G7       0.026700
     69 H27          0.5240     5.6440    -7.8340 hc         1 7G7       0.024700
     70 H28          0.7830     4.4890    -9.1540 hc         1 7G7       0.024700
     71 H29         -0.8630     7.0390    -9.3200 h1         1 7G7       0.007450
     72 H30          0.7500     6.8000   -10.0140 h1         1 7G7       0.007450
     73 H32         -2.5060     4.6990   -11.5570 h1         1 7G7       0.007450
     74 H33         -2.7430     5.8270   -10.2110 h1         1 7G7       0.007450
     75 H34         -1.1960     3.2130   -10.0890 hc         1 7G7       0.024700
     76 H35         -2.8090     3.4970    -9.4100 hc         1 7G7       0.024700
     77 H36         -1.5590     7.5520   -11.6490 h1         1 7G7      -0.000300
     78 H37         -1.4030     6.2890   -12.8780 h1         1 7G7      -0.000300
     79 H38          0.0370     7.1260   -12.2830 h1         1 7G7      -0.000300
     80 C7          -2.1660    -0.0000     1.2900 c3         1 7G7       0.175700
     81 C31         -4.2700    -0.2660    -2.3840 c3         1 7G7       0.077300
     82 O20          1.4010    -0.0870     4.7030 o          1 7G7      -0.583500
     83 C22         -2.6230    -0.0200     9.7760 c3         1 7G7      -0.021700
@<TRIPOS>BOND
     1     1     2 ar  
     2     1     4 1   
     3     1    18 ar  
     4     2     3 ar  
     5     2    43 1   
     6     3    16 ar  
     7     3    44 1   
     8     4    12 2   
     9     4    13 1   
    10     5     6 1   
    11     5    20 1   
    12     5    82 2   
    13     6     7 ar  
    14     6     9 ar  
    15     7     8 1   
    16     7    10 ar  
    17     8    21 2   
    18     8    47 1   
    19     9    22 ar  
    20     9    24 1   
    21    10    23 ar  
    22    10    48 1   
    23    11    49 1   
    24    11    50 1   
    25    11    51 1   
    26    11    83 1   
    27    12    27 1   
    28    13    29 2   
    29    13    52 1   
    30    14    15 ar  
    31    14    31 1   
    32    14    35 ar  
    33    15    32 ar  
    34    15    56 1   
    35    16    17 ar  
    36    17    18 ar  
    37    17    20 1   
    38    18    80 1   
    39    19    57 1   
    40    19    80 1   
    41    20    21 1   
    42    22    23 ar  
    43    22    58 1   
    44    23    83 1   
    45    25    59 1   
    46    25    60 1   
    47    25    61 1   
    48    25    83 1   
    49    26    62 1   
    50    26    63 1   
    51    26    64 1   
    52    26    83 1   
    53    27    28 1   
    54    27    81 1   
    55    28    29 1   
    56    28    30 2   
    57    29    31 1   
    58    31    65 1   
    59    32    33 ar  
    60    32    66 1   
    61    33    34 ar  
    62    33    36 1   
    63    34    35 ar  
    64    34    67 1   
    65    36    37 1   
    66    36    41 1   
    67    36    68 1   
    68    37    38 1   
    69    37    69 1   
    70    37    70 1   
    71    38    39 1   
    72    38    71 1   
    73    38    72 1   
    74    39    40 1   
    75    39    42 1   
    76    40    41 1   
    77    40    73 1   
    78    40    74 1   
    79    41    75 1   
    80    41    76 1   
    81    42    77 1   
    82    42    78 1   
    83    42    79 1   
    84    45    80 1   
    85    46    80 1   
    86    53    81 1   
    87    54    81 1   
    88    55    81 1   
@<TRIPOS>SUBSTRUCTURE
     1 7G7         1 TEMP              0 ****  ****    0 ROOT
