@<TRIPOS>MOLECULE
molecule
   61    64     1     0     0
SMALL
bcc


@<TRIPOS>ATOM
      1 C4           0.0000     0.0000     0.0000 ca         1 7G8       0.074600
      2 C5           1.3890     0.0000     0.0000 ca         1 7G8      -0.186000
      3 C6           2.0820     0.0000     1.1950 ca         1 7G8      -0.095000
      4 C8          -1.9020     0.6020    -1.2950 c          1 7G8       0.655100
      5 C13         -0.5840     0.9230     5.9420 ca         1 7G8      -0.202700
      6 C20          3.4160     3.7640     6.2780 ca         1 7G8       0.179600
      7 C21          4.7980     3.8450     6.3840 ca         1 7G8      -0.148000
      8 C22          5.3700     4.5840     7.4020 ca         1 7G8      -0.108000
      9 C24          3.1820     5.1630     8.2120 ca         1 7G8      -0.108000
     10 C28          6.2410     8.8180     9.2550 ca         1 7G8      -0.239300
     11 O34          5.7640     9.1640     4.3500 o          1 7G8      -0.605100
     12 N35          6.6680    11.1340     4.8320 ns         1 7G8      -0.565900
     13 C36          6.6380    11.5410     3.4250 c3         1 7G8       0.102300
     14 C31          6.2120     9.5200     6.6190 ca         1 7G8       0.389800
     15 N30          6.7000    10.3500     7.5340 nb         1 7G8      -0.699000
     16 C29          6.7260    10.0350     8.8120 ca         1 7G8       0.426200
     17 C32          5.7110     8.2750     6.9870 ca         1 7G8      -0.204300
     18 C27          5.7250     7.9130     8.3320 ca         1 7G8       0.111100
     19 C23          4.5630     5.2440     8.3180 ca         1 7G8       0.086100
     20 C25          2.6090     4.4300     7.1910 ca         1 7G8      -0.148000
     21 C16          1.6710     2.3010     5.4790 ca         1 7G8       0.952900
     22 N15          1.1340     2.3210     6.6890 nb         1 7G8      -0.788000
     23 C14          0.0200     1.6510     6.9510 ca         1 7G8       0.482200
     24 F18         -1.7200     0.2290     6.1750 f          1 7G8      -0.134900
     25 N17          1.1210     1.6200     4.4840 nb         1 7G8      -0.796000
     26 C12          0.0050     0.9270     4.6740 ca         1 7G8       0.720200
     27 C2           0.0060     0.0070     2.4020 ca         1 7G8       0.182600
     28 C3          -0.6920     0.0060     1.2030 ca         1 7G8      -0.169000
     29 C1           1.3960     0.0000     2.3950 ca         1 7G8      -0.154000
     30 N7          -0.7000    -0.0010    -1.2110 ns         1 7G8      -0.478100
     31 O10         -2.3370     1.2230    -0.3470 o          1 7G8      -0.590100
     32 C9          -2.7070     0.5060    -2.5660 c3         1 7G8      -0.160400
     33 C37         -4.0210     1.2720    -2.3960 c3         1 7G8      -0.076100
     34 H1           1.9300    -0.0030    -0.9390 ha         1 7G8       0.127000
     35 H2           3.1650    -0.0020     1.1920 ha         1 7G8       0.131000
     36 H3           5.4280     3.3280     5.6710 ha         1 7G8       0.149500
     37 H4           6.4480     4.6480     7.4850 ha         1 7G8       0.147000
     38 H5           2.5530     5.6800     8.9260 ha         1 7G8       0.147000
     39 H6           6.2680     8.5700    10.3100 ha         1 7G8       0.164000
     40 H7           7.0960    11.7270     5.5150 hn         1 7G8       0.334500
     41 H8           7.1250    12.5030     3.3170 h1         1 7G8       0.043700
     42 H9           5.6100    11.6170     3.0930 h1         1 7G8       0.043700
     43 H10          7.1570    10.8040     2.8250 h1         1 7G8       0.043700
     44 H11          7.1310    10.7420     9.5270 h4         1 7G8       0.035100
     45 H12          5.3180     7.5980     6.2390 ha         1 7G8       0.179000
     46 H13          1.5310     4.3670     7.1080 ha         1 7G8       0.149500
     47 H14          3.2460     3.0210     4.3330 hn         1 7G8       0.473800
     48 H15         -0.4120     1.6730     7.9440 h4         1 7G8       0.046100
     49 H16         -1.5240    -0.4830     3.8520 hn         1 7G8       0.487800
     50 H17         -1.7750     0.0060     1.2060 ha         1 7G8       0.164000
     51 H18          1.9420     0.0000     3.3310 ha         1 7G8       0.149000
     52 H19         -0.3130    -0.4590    -2.0120 hn         1 7G8       0.323500
     53 H20         -2.1420     0.9360    -3.3840 hc         1 7G8       0.059700
     54 H21         -2.9200    -0.5340    -2.7810 hc         1 7G8       0.059700
     55 H22         -4.6120     0.8060    -1.6180 hc         1 7G8       0.045367
     56 H23         -3.8080     2.2980    -2.1230 hc         1 7G8       0.045367
     57 H24         -4.5720     1.2530    -3.3290 hc         1 7G8       0.045367
     58 N11         -0.6870     0.0130     3.6150 nu         1 7G8      -0.808300
     59 N19          2.8370     3.0150     5.2460 nu         1 7G8      -0.749300
     60 O26          5.1260     5.9660     9.3230 os         1 7G8      -0.314200
     61 C33          6.2060     9.9210     5.1930 c          1 7G8       0.574600
@<TRIPOS>BOND
     1    13    12 1   
     2    11    61 2   
     3    12    61 1   
     4    61    14 1   
     5    14    17 ar  
     6    14    15 ar  
     7    17    18 ar  
     8    15    16 ar  
     9    18    60 1   
    10    18    10 ar  
    11    60    19 1   
    12    16    10 ar  
    13     9    19 ar  
    14     9    20 ar  
    15    19     8 ar  
    16    20     6 ar  
    17     8     7 ar  
    18     6     7 ar  
    19     6    59 1   
    20    59    21 1   
    21    21    22 ar  
    22    21    25 ar  
    23    22    23 ar  
    24    31     4 2   
    25    33    32 1   
    26    25    26 ar  
    27     3     2 ar  
    28     3    29 ar  
    29     2     1 ar  
    30     4    32 1   
    31     4    30 1   
    32    23     5 ar  
    33    29    27 ar  
    34    26     5 ar  
    35    26    58 1   
    36     1    30 1   
    37     1    28 ar  
    38     5    24 1   
    39    27    28 ar  
    40    27    58 1   
    41     2    34 1   
    42     3    35 1   
    43     7    36 1   
    44     8    37 1   
    45     9    38 1   
    46    10    39 1   
    47    12    40 1   
    48    13    41 1   
    49    13    42 1   
    50    13    43 1   
    51    16    44 1   
    52    17    45 1   
    53    20    46 1   
    54    59    47 1   
    55    23    48 1   
    56    58    49 1   
    57    28    50 1   
    58    29    51 1   
    59    30    52 1   
    60    32    53 1   
    61    32    54 1   
    62    33    55 1   
    63    33    56 1   
    64    33    57 1   
@<TRIPOS>SUBSTRUCTURE
     1 7G8         1 TEMP              0 ****  ****    0 ROOT
