@<TRIPOS>MOLECULE
7G9
   55    57     1     0     0
SMALL
bcc


@<TRIPOS>ATOM
      1 C1           0.0000     0.0000     0.0000 ca         1 7G9      -0.278700
      2 C2           1.3830     0.0000     0.0000 ca         1 7G9       0.503200
      3 C8           3.4820    -0.1190     3.4700 ca         1 7G9      -0.050400
      4 C9           4.2500     0.5430     4.4190 ca         1 7G9      -0.073500
      5 C10          5.6260     0.4230     4.3990 ca         1 7G9      -0.159000
      6 C11          6.2400    -0.3600     3.4320 ca         1 7G9       0.141100
      7 C12          5.4730    -1.0220     2.4850 ca         1 7G9      -0.159000
      8 C13          4.0980    -0.9030     2.5030 ca         1 7G9      -0.073500
      9 C15          8.1600    -1.3000     2.3910 c3         1 7G9       0.198400
     10 C16          9.6840    -1.3120     2.5290 c3         1 7G9       0.207400
     11 O17         10.0460    -1.9380     3.7620 os         1 7G9      -0.409600
     12 C20         -2.7080    -0.1290     2.5060 ca         1 7G9       0.009600
     13 C21         -2.1520    -0.9050     3.5140 ca         1 7G9      -0.132000
     14 C22         -2.8090    -1.0330     4.7290 ca         1 7G9      -0.072400
     15 C24         -4.5730     0.3860     3.9290 ca         1 7G9      -0.063000
     16 N26         -2.2510    -1.8140     5.7480 ns         1 7G9      -0.040100
     17 C27         -2.3850    -1.4380     7.0340 c          1 7G9       0.556100
     18 N3           2.0300     0.0000     1.1560 nb         1 7G9      -0.716000
     19 C4           1.3720    -0.0010     2.3060 ca         1 7G9       0.730900
     20 N5           0.0480    -0.0020     2.3500 nb         1 7G9      -0.735000
     21 C6          -0.6660    -0.0010     1.2290 ca         1 7G9       0.548200
     22 N7           2.0870    -0.0020     3.4930 nu         1 7G9      -0.275300
     23 O14          7.5950    -0.4780     3.4140 os         1 7G9      -0.295900
     24 C18         11.4550    -2.0010     3.9900 c3         1 7G9       0.254700
     25 N19         -2.0540    -0.0010     1.2790 nu         1 7G9      -0.288300
     26 C23         -4.0210    -0.3860     4.9340 ca         1 7G9      -0.112000
     27 C25         -3.9220     0.5170     2.7180 ca         1 7G9      -0.143000
     28 C28         -1.8810    -2.3330     8.1370 c3         1 7G9      -0.098400
     29 C29         -2.1550    -1.6770     9.4920 c3         1 7G9       0.021900
     30 O30         -2.9100    -0.3780     7.3060 o          1 7G9      -0.629100
     31 F31         -0.6910     0.0060    -1.1600 f          1 7G9      -0.119900
     32 H1           1.9300     0.0010    -0.9350 h4         1 7G9      -0.008900
     33 H2           3.7710     1.1550     5.1730 ha         1 7G9       0.119000
     34 H3           6.2260     0.9400     5.1380 ha         1 7G9       0.118000
     35 H4           5.9540    -1.6330     1.7300 ha         1 7G9       0.118000
     36 H5           3.5000    -1.4210     1.7630 ha         1 7G9       0.119000
     37 H6           7.8890    -0.9060     1.4190 h1         1 7G9       0.008200
     38 H7           7.7820    -2.3110     2.4900 h1         1 7G9       0.008200
     39 H8          10.0550    -0.2940     2.5180 h1         1 7G9      -0.001300
     40 H9          10.1170    -1.8630     1.7030 h1         1 7G9      -0.001300
     41 H10         -1.2510    -1.4750     3.3230 ha         1 7G9       0.130000
     42 H11         -5.5180     0.8890     4.0910 ha         1 7G9       0.105000
     43 H12         -1.7820    -2.6690     5.5230 hn         1 7G9       0.166500
     44 H13          1.6070     0.0890     4.3660 hn         1 7G9       0.292800
     45 H14         11.6460    -2.4870     4.9390 h1         1 7G9      -0.013300
     46 H15         11.8620    -0.9970     4.0100 h1         1 7G9      -0.013300
     47 H16         11.9250    -2.5660     3.1940 h1         1 7G9      -0.013300
     48 H17         -2.5840     0.0540     0.4320 hn         1 7G9       0.297800
     49 H18         -4.5340    -0.4860     5.8820 ha         1 7G9       0.136000
     50 H19         -4.3570     1.1220     1.9320 ha         1 7G9       0.107000
     51 H20         -2.3920    -3.2880     8.0890 hc         1 7G9       0.024700
     52 H21         -1.7420    -2.2930    10.2820 hc         1 7G9       0.009700
     53 H22         -1.6910    -0.6980     9.5190 hc         1 7G9       0.009700
     54 H23         -0.8160    -2.4880     8.0190 hc         1 7G9       0.024700
     55 H24         -3.2230    -1.5740     9.6350 hc         1 7G9       0.009700
@<TRIPOS>BOND
     1     1     2 ar  
     2     1    21 ar  
     3     1    31 1   
     4     2    18 ar  
     5     2    32 1   
     6     3     4 ar  
     7     3     8 ar  
     8     3    22 1   
     9     4     5 ar  
    10     4    33 1   
    11     5     6 ar  
    12     5    34 1   
    13     6     7 ar  
    14     6    23 1   
    15     7     8 ar  
    16     7    35 1   
    17     8    36 1   
    18     9    10 1   
    19     9    23 1   
    20     9    37 1   
    21     9    38 1   
    22    10    11 1   
    23    10    39 1   
    24    10    40 1   
    25    11    24 1   
    26    12    13 ar  
    27    12    25 1   
    28    12    27 ar  
    29    13    14 ar  
    30    13    41 1   
    31    14    16 1   
    32    14    26 ar  
    33    15    26 ar  
    34    15    27 ar  
    35    15    42 1   
    36    16    17 1   
    37    16    43 1   
    38    17    28 1   
    39    17    30 2   
    40    18    19 ar  
    41    19    20 ar  
    42    19    22 1   
    43    20    21 ar  
    44    21    25 1   
    45    22    44 1   
    46    24    45 1   
    47    24    46 1   
    48    24    47 1   
    49    25    48 1   
    50    26    49 1   
    51    27    50 1   
    52    28    29 1   
    53    28    51 1   
    54    28    54 1   
    55    29    52 1   
    56    29    53 1   
    57    29    55 1   
@<TRIPOS>SUBSTRUCTURE
     1 7G9         1 TEMP              0 ****  ****    0 ROOT
