@<TRIPOS>MOLECULE
molecule
   55    57     1     0     0
SMALL
bcc


@<TRIPOS>ATOM
      1 C1           0.0000     0.0000     0.0000 ca         1 7G9      -0.238700
      2 C2           1.3830     0.0000     0.0000 ca         1 7G9       0.495200
      3 C8           3.4820    -0.1190     3.4700 ca         1 7G9       0.117600
      4 C9           4.2500     0.5430     4.4190 ca         1 7G9      -0.105500
      5 C10          5.6260     0.4230     4.3990 ca         1 7G9      -0.174500
      6 C11          6.2400    -0.3600     3.4320 ca         1 7G9       0.128100
      7 C12          5.4730    -1.0220     2.4850 ca         1 7G9      -0.174500
      8 C13          4.0980    -0.9030     2.5030 ca         1 7G9      -0.105500
      9 C15          8.1600    -1.3000     2.3910 c3         1 7G9       0.141400
     10 C16          9.6840    -1.3120     2.5290 c3         1 7G9       0.138400
     11 O17         10.0460    -1.9380     3.7620 os         1 7G9      -0.419600
     12 C20         -2.7080    -0.1290     2.5060 ca         1 7G9       0.166600
     13 C21         -2.1520    -0.9050     3.5140 ca         1 7G9      -0.155000
     14 C22         -2.8090    -1.0330     4.7290 ca         1 7G9       0.068600
     15 C24         -4.5730     0.3860     3.9290 ca         1 7G9      -0.095000
     16 N26         -2.2510    -1.8140     5.7480 ns         1 7G9      -0.480100
     17 C27         -2.3850    -1.4380     7.0340 c          1 7G9       0.655100
     18 N3           2.0300     0.0000     1.1560 nb         1 7G9      -0.804000
     19 C4           1.3720    -0.0010     2.3060 ca         1 7G9       0.961900
     20 N5           0.0480    -0.0020     2.3500 nb         1 7G9      -0.832000
     21 C6          -0.6660    -0.0010     1.2290 ca         1 7G9       0.735200
     22 N7           2.0870    -0.0020     3.4930 nu         1 7G9      -0.748300
     23 O14          7.5950    -0.4780     3.4140 os         1 7G9      -0.319900
     24 C18         11.4550    -2.0010     3.9900 c3         1 7G9       0.128700
     25 N19         -2.0540    -0.0010     1.2790 nu         1 7G9      -0.759300
     26 C23         -4.0210    -0.3860     4.9340 ca         1 7G9      -0.141000
     27 C25         -3.9220     0.5170     2.7180 ca         1 7G9      -0.176000
     28 C28         -1.8810    -2.3330     8.1370 c3         1 7G9      -0.160400
     29 C29         -2.1550    -1.6770     9.4920 c3         1 7G9      -0.076100
     30 O30         -2.9100    -0.3780     7.3060 o          1 7G9      -0.590100
     31 F31         -0.6910     0.0060    -1.1600 f          1 7G9      -0.141900
     32 H1           1.9300     0.0010    -0.9350 h4         1 7G9       0.042100
     33 H2           3.7710     1.1550     5.1730 ha         1 7G9       0.146000
     34 H3           6.2260     0.9400     5.1380 ha         1 7G9       0.141000
     35 H4           5.9540    -1.6330     1.7300 ha         1 7G9       0.141000
     36 H5           3.5000    -1.4210     1.7630 ha         1 7G9       0.146000
     37 H6           7.8890    -0.9060     1.4190 h1         1 7G9       0.044700
     38 H7           7.7820    -2.3110     2.4900 h1         1 7G9       0.044700
     39 H8          10.0550    -0.2940     2.5180 h1         1 7G9       0.036200
     40 H9          10.1170    -1.8630     1.7030 h1         1 7G9       0.036200
     41 H10         -1.2510    -1.4750     3.3230 ha         1 7G9       0.151000
     42 H11         -5.5180     0.8890     4.0910 ha         1 7G9       0.136000
     43 H12         -1.7820    -2.6690     5.5230 hn         1 7G9       0.323500
     44 H13          1.6070     0.0890     4.3660 hn         1 7G9       0.468800
     45 H14         11.6460    -2.4870     4.9390 h1         1 7G9       0.030700
     46 H15         11.8620    -0.9970     4.0100 h1         1 7G9       0.030700
     47 H16         11.9250    -2.5660     3.1940 h1         1 7G9       0.030700
     48 H17         -2.5840     0.0540     0.4320 hn         1 7G9       0.469800
     49 H18         -4.5340    -0.4860     5.8820 ha         1 7G9       0.157000
     50 H19         -4.3570     1.1220     1.9320 ha         1 7G9       0.131000
     51 H20         -2.3920    -3.2880     8.0890 hc         1 7G9       0.059700
     52 H21         -1.7420    -2.2930    10.2820 hc         1 7G9       0.045033
     53 H22         -1.6910    -0.6980     9.5190 hc         1 7G9       0.045033
     54 H23         -0.8160    -2.4880     8.0190 hc         1 7G9       0.059700
     55 H24         -3.2230    -1.5740     9.6350 hc         1 7G9       0.045033
@<TRIPOS>BOND
     1    31     1 1
     2    25    12 1
     3    25    21 1
     4    13    12 ar
     5    13    14 ar
     6    12    27 ar
     7     1    21 ar
     8     1     2 ar
     9    16    14 1
    10    16    17 1
    11    14    26 ar
    12    21    20 ar
    13    27    15 ar
    14     2    18 ar
    15    28    17 1
    16    28    29 1
    17    26    15 ar
    18    17    30 2
    19    20    19 ar
    20    18    19 ar
    21    19    22 1
    22    22     3 1
    23     8     3 ar
    24     8     7 ar
    25     3     4 ar
    26     7     6 ar
    27     4     5 ar
    28    10     9 1
    29    10    11 1
    30     6     5 ar
    31     6    23 1
    32     9    23 1
    33    11    24 1
    34     2    32 1
    35     4    33 1
    36     5    34 1
    37     7    35 1
    38     8    36 1
    39     9    37 1
    40     9    38 1
    41    10    39 1
    42    10    40 1
    43    13    41 1
    44    15    42 1
    45    16    43 1
    46    22    44 1
    47    24    45 1
    48    24    46 1
    49    24    47 1
    50    25    48 1
    51    26    49 1
    52    27    50 1
    53    28    51 1
    54    29    52 1
    55    29    53 1
    56    28    54 1
    57    29    55 1
@<TRIPOS>SUBSTRUCTURE
     1 7G9         1 TEMP              0 ****  ****    0 ROOT
