@<TRIPOS>MOLECULE
molecule
   22    21     1     0     0
SMALL
bcc


@<TRIPOS>ATOM
      1 CA           1.5070     0.0000     0.0000 c3         1 7GA      -0.176700
      2 C            0.0000     0.0000     0.0000 c          1 7GA       0.895600
      3 O           -0.6050     0.0010     1.0470 o          1 7GA      -0.855300
      4 C8           2.0170     0.0000     1.4420 c3         1 7GA      -0.052400
      5 C9           3.5410    -0.1250     1.4450 c3         1 7GA      -0.086700
      6 C10          4.0640     0.0220     2.8750 c3         1 7GA      -0.084100
      7 C11          3.9410    -1.4960     0.8950 c3         1 7GA      -0.084100
      8 C6           2.0170     1.2480    -0.7210 c3         1 7GA      -0.068100
      9 OXT         -0.6710     0.0000    -1.1610 o          1 7GA      -0.855300
     10 HA           1.8670    -0.8850    -0.5110 hc         1 7GA       0.038700
     11 H81C         1.7290     0.9250     1.9270 hc         1 7GA       0.046200
     12 H82C         1.5850    -0.8370     1.9780 hc         1 7GA       0.046200
     13 H61C         2.6280     0.9530    -1.5660 hc         1 7GA       0.018367
     14 H62C         2.6100     1.8430    -0.0370 hc         1 7GA       0.018367
     15 H63C         1.1750     1.8330    -1.0710 hc         1 7GA       0.018367
     16 H9           3.9690     0.6520     0.8230 hc         1 7GA       0.042700
     17 H101         5.1440    -0.0610     2.8750 hc         1 7GA       0.023367
     18 H102         3.7760     0.9900     3.2670 hc         1 7GA       0.023367
     19 H103         3.6420    -0.7590     3.4960 hc         1 7GA       0.023367
     20 H111         3.7070    -1.5440    -0.1620 hc         1 7GA       0.023367
     21 H112         3.3950    -2.2700     1.4210 hc         1 7GA       0.023367
     22 H113         5.0050    -1.6460     1.0370 hc         1 7GA       0.023367
@<TRIPOS>BOND
     1     1     2 1   
     2     1     4 1   
     3     1     8 1   
     4     2     3 1   
     5     2     9 1   
     6     4     5 1   
     7     5     6 1   
     8     5     7 1   
     9     1    10 1   
    10     4    11 1   
    11     4    12 1   
    12     8    13 1   
    13     8    14 1   
    14     8    15 1   
    15     5    16 1   
    16     6    17 1   
    17     6    18 1   
    18     6    19 1   
    19     7    20 1   
    20     7    21 1   
    21     7    22 1   
@<TRIPOS>SUBSTRUCTURE
     1 7GA         1 TEMP              0 ****  ****    0 ROOT
