@<TRIPOS>MOLECULE
7GA
   22    21     1     0     0
SMALL
bcc


@<TRIPOS>ATOM
      1 CA          1.5280    0.1830   -0.0210 c3        1 7GA     -0.188700
      2 C          -0.0120   -0.0170   -0.0240 c         1 7GA      0.913600
      3 O          -0.5900   -0.3640    1.0450 o         1 7GA     -0.848800
      4 C8          2.1070    0.0180    1.3700 c3        1 7GA     -0.060400
      5 C9          3.5940   -0.3170    1.3710 c3        1 7GA     -0.072700
      6 C10         4.2150    0.0360    2.7070 c3        1 7GA     -0.082600
      7 C11         3.8280   -1.7810    1.0630 c3        1 7GA     -0.082600
      8 C6          1.8630    1.5310   -0.6150 c3        1 7GA     -0.064100
      9 OXT        -0.6140    0.1580   -1.1230 o         1 7GA     -0.848800
     10 HA          1.9430   -0.6180   -0.6920 hc        1 7GA      0.028700
     11 H81C        1.5370   -0.7920    1.9010 hc        1 7GA      0.048200
     12 H82C        1.9410    0.9640    1.9490 hc        1 7GA      0.048200
     13 H61C        1.5240    2.3530    0.0600 hc        1 7GA      0.015033
     14 H62C        1.3370    1.6430   -1.5950 hc        1 7GA      0.015033
     15 H63C        2.9630    1.6410   -0.7780 hc        1 7GA      0.015033
     16 H9          4.1000    0.2980    0.5730 hc        1 7GA      0.035700
     17 H101        5.2970   -0.2380    2.7240 hc        1 7GA      0.021700
     18 H102        3.6980   -0.5100    3.5320 hc        1 7GA      0.021700
     19 H103        4.1250    1.1320    2.9010 hc        1 7GA      0.021700
     20 H111        3.3640   -2.0490    0.0830 hc        1 7GA      0.021700
     21 H112        4.9210   -2.0020    1.0140 hc        1 7GA      0.021700
     22 H113        3.3720   -2.4240    1.8540 hc        1 7GA      0.021700
@<TRIPOS>BOND
     1    1    2 1   
     2    1    4 1   
     3    1    8 1   
     4    1   10 1   
     5    2    3 1   
     6    2    9 1   
     7    4    5 1   
     8    4   11 1   
     9    4   12 1   
    10    5    6 1   
    11    5    7 1   
    12    5   16 1   
    13    6   17 1   
    14    6   18 1   
    15    6   19 1   
    16    7   20 1   
    17    7   21 1   
    18    7   22 1   
    19    8   13 1   
    20    8   14 1   
    21    8   15 1   
@<TRIPOS>SUBSTRUCTURE
     1 7GA         1 TEMP              0 ****  ****    0 ROOT
