@<TRIPOS>MOLECULE
7GB
   58    64     1     0     0
SMALL
bcc


@<TRIPOS>ATOM
      1 C2           0.0000     0.0000     0.0000 c2         1 7GB       0.010000
      2 C8           0.5290     0.0070     4.4240 c2         1 7GB       0.159000
      3 C11         -1.9440     0.0180     4.0350 c3         1 7GB      -0.063000
      4 C12         -2.2200     1.1880     5.0150 c3         1 7GB      -0.140000
      5 C13         -3.4150     0.6680     5.8440 c3         1 7GB      -0.051000
      6 C15         -2.2590    -1.2130     4.9200 c3         1 7GB      -0.073000
      7 O17         -4.2030    -2.8300     6.1660 o          1 7GB      -0.445000
      8 C19         -6.2950    -1.8950     7.6790 c2         1 7GB      -0.043000
      9 C20         -7.4260    -1.3320     8.5010 DU         1 7GB      -0.035000
     10 C22          2.9670    -0.0050     4.1910 ca         1 7GB      -0.145000
     11 C24          4.9510     1.1840     4.8260 ca         1 7GB      -0.169500
     12 C27          3.5680    -1.2040     4.5510 ca         1 7GB      -0.036000
     13 C30          7.5130    -1.6960     7.2150 ca         1 7GB      -0.116000
     14 C31          8.1070    -2.9180     7.4600 ca         1 7GB      -0.085500
     15 C32          8.5990    -3.6730     6.4120 ca         1 7GB      -0.102000
     16 C33          8.4980    -3.2060     5.1140 ca         1 7GB      -0.085500
     17 C34          7.9040    -1.9840     4.8620 ca         1 7GB      -0.116000
     18 N1           1.3190     0.0000     0.0000 n2         1 7GB      -0.170000
     19 N3          -0.7030     0.0060     1.1140 n2         1 7GB      -0.130000
     20 C4          -0.0980     0.0060     2.2970 c2         1 7GB      -0.049000
     21 C5           1.2980     0.0000     2.3430 c2         1 7GB      -0.333000
     22 C6           2.0040     0.0000     1.1420 c2         1 7GB       0.050000
     23 N7          -0.5420     0.0110     3.6070 n          1 7GB       0.178000
     24 N9           1.6590     0.0010     3.6890 n          1 7GB       0.265000
     25 O10          0.4830     0.0100     5.6400 o          1 7GB      -0.432000
     26 N14         -3.4090    -0.7990     5.7450 n3         1 7GB      -0.044000
     27 C18         -5.4100    -1.0770     7.1170 c2         1 7GB      -0.170000
     28 N21          3.3910    -0.0060     1.1360 nv         1 7GB       0.053000
     29 C23          3.6610     1.1900     4.3320 ca         1 7GB      -0.036000
     30 C25          5.5530    -0.0150     5.1810 ca         1 7GB       0.121000
     31 C26          4.8570    -1.2080     5.0440 ca         1 7GB      -0.169500
     32 C29          7.4050    -1.2280     5.9130 ca         1 7GB       0.049000
     33 H1          -0.5230    -0.0000    -0.9490 h5         1 7GB       0.138000
     34 H2          -2.6150     0.0610     3.1850 h1         1 7GB       0.108000
     35 H3          -2.4940     2.0840     4.4720 hc         1 7GB       0.084500
     36 H4          -1.3620     1.3630     5.6520 hc         1 7GB       0.084500
     37 H5          -3.3020     0.9670     6.8790 h1         1 7GB       0.057500
     38 H6          -4.3400     1.0600     5.4400 h1         1 7GB       0.057500
     39 H7          -2.5270    -2.0620     4.3030 h1         1 7GB       0.084000
     40 H8          -1.4110    -1.4500     5.5510 h1         1 7GB       0.084000
     41 H9          -6.2010    -1.5730     8.7090 DU         1 7GB       0.048000
     42 H10         -7.2390    -0.2840     8.7020 ha         1 7GB       0.045000
     43 H11         -7.4950    -1.8720     9.4380 ha         1 7GB       0.045000
     44 H12         -8.3560    -1.4350     7.9550 ha         1 7GB       0.045000
     45 H13          5.4930     2.1150     4.9360 ha         1 7GB       0.128000
     46 H14          3.0260    -2.1350     4.4440 ha         1 7GB       0.114500
     47 H15          7.1280    -1.1050     8.0370 ha         1 7GB       0.117000
     48 H16          8.1890    -3.2850     8.4760 ha         1 7GB       0.107500
     49 H17          9.0640    -4.6320     6.6070 ha         1 7GB       0.107000
     50 H18          8.8860    -3.7990     4.2950 ha         1 7GB       0.107500
     51 H19          7.8260    -1.6190     3.8450 ha         1 7GB       0.117000
     52 H20         -4.5140    -1.5220     7.5330 DU         1 7GB       0.020000
     53 H21          3.8870    -0.4870     0.4110 hn         1 7GB       0.076000
     54 H22          3.8970     0.4840     1.8470 hn         1 7GB       0.076000
     55 H23          3.1920     2.1260     4.0530 ha         1 7GB       0.114500
     56 H24          5.3270    -2.1430     5.3230 ha         1 7GB       0.128000
     57 C16         -4.3070    -1.6280     6.3150 c3         1 7GB       0.386000
     58 O28          6.8230    -0.0200     5.6670 os         1 7GB      -0.127000
@<TRIPOS>BOND
     1     1    18 1   
     2     1    19 1   
     3     1    33 1   
     4     2    23 1   
     5     2    24 1   
     6     2    25 1   
     7     3     4 1   
     8     3     6 1   
     9     3    23 1   
    10     3    34 1   
    11     4     5 1   
    12     4    35 1   
    13     4    36 1   
    14     5    26 1   
    15     5    37 1   
    16     5    38 1   
    17     6    26 1   
    18     6    39 1   
    19     6    40 1   
    20     7    57 1   
    21     8     9 1   
    22     8    27 1   
    23     8    41 1   
    24     9    41 1   
    25     9    42 1   
    26     9    43 1   
    27     9    44 1   
    28    10    12 1   
    29    10    24 1   
    30    10    29 1   
    31    11    29 1   
    32    11    30 1   
    33    11    45 1   
    34    12    31 1   
    35    12    46 1   
    36    13    14 1   
    37    13    32 1   
    38    13    47 1   
    39    14    15 1   
    40    14    48 1   
    41    15    16 1   
    42    15    49 1   
    43    16    17 1   
    44    16    50 1   
    45    17    32 1   
    46    17    51 1   
    47    18    22 1   
    48    19    20 1   
    49    20    21 1   
    50    20    23 1   
    51    21    22 1   
    52    21    24 1   
    53    22    28 1   
    54    26    57 1   
    55    27    52 1   
    56    27    57 1   
    57    28    53 1   
    58    28    54 1   
    59    29    55 1   
    60    30    31 1   
    61    30    58 1   
    62    31    56 1   
    63    32    58 1   
    64    52    57 1   
@<TRIPOS>SUBSTRUCTURE
     1 7GB         1 TEMP              0 ****  ****    0 ROOT
