@<TRIPOS>MOLECULE
molecule
   58    62     1     0     0
SMALL
bcc


@<TRIPOS>ATOM
      1 C2           0.0000     0.0000     0.0000 ca         1 7GB       0.726900
      2 C8           0.5290     0.0070     4.4240 c          1 7GB       0.806500
      3 C11         -1.9440     0.0180     4.0350 c3         1 7GB       0.116700
      4 C12         -2.2200     1.1880     5.0150 c3         1 7GB      -0.114400
      5 C13         -3.4150     0.6680     5.8440 c3         1 7GB       0.100000
      6 C15         -2.2590    -1.2130     4.9200 c3         1 7GB       0.090000
      7 O17         -4.2030    -2.8300     6.1660 o          1 7GB      -0.614100
      8 C19         -6.2950    -1.8950     7.6790 c2         1 7GB      -0.085200
      9 C20         -7.4260    -1.3320     8.5010 c3         1 7GB      -0.072900
     10 C22          2.9670    -0.0050     4.1910 ca         1 7GB       0.008600
     11 C24          4.9510     1.1840     4.8260 ca         1 7GB      -0.182500
     12 C27          3.5680    -1.2040     4.5510 ca         1 7GB      -0.079000
     13 C30          7.5130    -1.6960     7.2150 ca         1 7GB      -0.136000
     14 C31          8.1070    -2.9180     7.4600 ca         1 7GB      -0.118000
     15 C32          8.5990    -3.6730     6.4120 ca         1 7GB      -0.126000
     16 C33          8.4980    -3.2060     5.1140 ca         1 7GB      -0.118000
     17 C34          7.9040    -1.9840     4.8620 ca         1 7GB      -0.136000
     18 N1           1.3190     0.0000     0.0000 nb         1 7GB      -0.799000
     19 N3          -0.7030     0.0060     1.1140 nb         1 7GB      -0.781000
     20 C4          -0.0980     0.0060     2.2970 ca         1 7GB       0.551200
     21 C5           1.2980     0.0000     2.3430 ca         1 7GB      -0.313000
     22 C6           2.0040     0.0000     1.1420 ca         1 7GB       0.748200
     23 N7          -0.5420     0.0110     3.6070 n          1 7GB      -0.421300
     24 N9           1.6590     0.0010     3.6890 n          1 7GB      -0.255200
     25 O10          0.4830     0.0100     5.6400 o          1 7GB      -0.642500
     26 N14         -3.4090    -0.7990     5.7450 n          1 7GB      -0.492800
     27 C18         -5.4100    -1.0770     7.1170 ce         1 7GB      -0.258200
     28 N21          3.3910    -0.0060     1.1360 nv         1 7GB      -1.011500
     29 C23          3.6610     1.1900     4.3320 ca         1 7GB      -0.079000
     30 C25          5.5530    -0.0150     5.1810 ca         1 7GB       0.149100
     31 C26          4.8570    -1.2080     5.0440 ca         1 7GB      -0.182500
     32 C29          7.4050    -1.2280     5.9130 ca         1 7GB       0.091100
     33 H1          -0.5230    -0.0000    -0.9490 h5         1 7GB       0.067100
     34 H2          -2.6150     0.0610     3.1850 h1         1 7GB       0.101700
     35 H3          -1.3620     1.3630     5.6520 hc         1 7GB       0.074200
     36 H4          -2.4940     2.0840     4.4720 hc         1 7GB       0.074200
     37 H5          -4.3400     1.0600     5.4400 h1         1 7GB       0.045700
     38 H6          -3.3020     0.9670     6.8790 h1         1 7GB       0.045700
     39 H7          -1.4110    -1.4500     5.5510 h1         1 7GB       0.074700
     40 H8          -2.5270    -2.0620     4.3030 h1         1 7GB       0.074700
     41 H9          -6.1800    -2.9680     7.5790 ha         1 7GB       0.153000
     42 H10         -8.0390    -2.1420     8.8760 hc         1 7GB       0.047700
     43 H11         -8.0290    -0.6770     7.8850 hc         1 7GB       0.047700
     44 H12         -7.0210    -0.7710     9.3350 hc         1 7GB       0.047700
     45 H13          5.4930     2.1150     4.9360 ha         1 7GB       0.153500
     46 H14          3.0260    -2.1350     4.4440 ha         1 7GB       0.149500
     47 H15          7.1280    -1.1050     8.0370 ha         1 7GB       0.145000
     48 H16          8.1890    -3.2850     8.4760 ha         1 7GB       0.138000
     49 H17          9.0640    -4.6320     6.6070 ha         1 7GB       0.136000
     50 H18          8.8860    -3.7990     4.2950 ha         1 7GB       0.138000
     51 H19          7.8260    -1.6190     3.8450 ha         1 7GB       0.145000
     52 H20         -5.5010    -0.0060     7.2510 ha         1 7GB       0.128000
     53 H21          3.8900     0.4030     0.3700 hn         1 7GB       0.447800
     54 H22          3.8930    -0.3840     1.9150 hn         1 7GB       0.447800
     55 H23          3.1920     2.1260     4.0530 ha         1 7GB       0.149500
     56 H24          5.3270    -2.1430     5.3230 ha         1 7GB       0.153500
     57 C16         -4.3070    -1.6280     6.3150 c          1 7GB       0.688300
     58 O28          6.8230    -0.0200     5.6670 os         1 7GB      -0.244200
@<TRIPOS>BOND
     1    16    17 ar
     2    16    15 ar
     3    17    32 ar
     4    15    14 ar
     5    32    58 1
     6    32    13 ar
     7    14    13 ar
     8    58    30 1
     9    30    11 ar
    10    30    31 ar
    11    11    29 ar
    12    31    12 ar
    13    29    10 ar
    14    12    10 ar
    15    10    24 1
    16    25     2 2
    17    24     2 1
    18    24    21 1
    19     7    57 2
    20     2    23 1
    21    28    22 1
    22    27    57 1
    23    27     8 2
    24    57    26 1
    25    21    22 ar
    26    21    20 ar
    27    22    18 ar
    28     9     8 1
    29    23    20 1
    30    23     3 1
    31     4     5 1
    32     4     3 1
    33    26     5 1
    34    26     6 1
    35    20    19 ar
    36     3     6 1
    37    18     1 ar
    38    19     1 ar
    39     1    33 1
    40     3    34 1
    41     4    35 1
    42     4    36 1
    43     5    37 1
    44     5    38 1
    45     6    39 1
    46     6    40 1
    47     8    41 1
    48     9    42 1
    49     9    43 1
    50     9    44 1
    51    11    45 1
    52    12    46 1
    53    13    47 1
    54    14    48 1
    55    15    49 1
    56    16    50 1
    57    17    51 1
    58    27    52 1
    59    28    53 1
    60    28    54 1
    61    29    55 1
    62    31    56 1
@<TRIPOS>SUBSTRUCTURE
     1 7GB         1 TEMP              0 ****  ****    0 ROOT
