@<TRIPOS>MOLECULE
7GC
   30    31     1     0     0
SMALL
bcc


@<TRIPOS>ATOM
      1 C1           0.0000     0.0000     0.0000 c3         1 7GC       0.055200
      2 C9           2.1980     0.0000     1.1970 ca         1 7GC      -0.139500
      3 C14          3.5800    -0.0020    -1.1970 ca         1 7GC       0.019500
      4 C15          2.1980    -0.0010    -1.1970 ca         1 7GC      -0.139500
      5 C18          6.3620    -6.3490    -3.3550 cc         1 7GC       0.378200
      6 C19          5.6900    -5.5970    -4.2290 cd         1 7GC      -0.161400
      7 N2           6.5240    -1.5830     0.0010 ns         1 7GC      -0.306300
      8 O3           6.4350     0.5450     1.2500 o          1 7GC      -0.565300
      9 S4           6.0330    -0.0010    -0.0000 sy         1 7GC       1.050900
     10 C5           1.5070     0.0000     0.0000 ca         1 7GC      -0.030300
     11 N6           6.6510    -3.6610    -1.0550 ns         1 7GC      -0.063400
     12 O7           6.4350     0.5430    -1.2500 o          1 7GC      -0.565300
     13 S8           5.5210    -3.9820    -3.5440 ss         1 7GC      -0.211300
     14 N10          6.7090    -5.7230    -2.2460 nc         1 7GC      -0.630000
     15 O11          5.6480    -1.9240    -2.0110 o          1 7GC      -0.640100
     16 C12          3.5810    -0.0000     1.1970 ca         1 7GC       0.019500
     17 C13          4.2710    -0.0010     0.0000 ca         1 7GC      -0.170500
     18 C16          6.2520    -2.3730    -1.0560 c          1 7GC       0.611100
     19 C17          6.3710    -4.4760    -2.1450 cd         1 7GC       0.408300
     20 H1          -0.3610    -0.7340     0.7100 hc         1 7GC       0.012033
     21 H2          -0.3610    -0.2480    -0.9910 hc         1 7GC       0.012033
     22 H3          -0.3610     0.9820     0.2800 hc         1 7GC       0.012033
     23 H4           1.6570     0.0000     2.1350 ha         1 7GC       0.113000
     24 H5           4.1220    -0.0030    -2.1350 ha         1 7GC       0.131000
     25 H6           1.6560    -0.0020    -2.1350 ha         1 7GC       0.113000
     26 H8           5.3160    -5.9220    -5.1930 h4         1 7GC       0.159000
     27 H9           7.0580    -1.9400     0.7680 hn         1 7GC       0.225500
     28 H10          7.1770    -4.0210    -0.2830 hn         1 7GC       0.173500
     29 H11          4.1220    -0.0000     2.1350 ha         1 7GC       0.131000
     30 H7           6.5970    -7.3900    -3.5380 h4         1 7GC      -0.001900
@<TRIPOS>BOND
     1     1    10 1   
     2     1    20 1   
     3     1    21 1   
     4     1    22 1   
     5     2    10 ar  
     6     2    16 ar  
     7     2    23 1   
     8     3     4 ar  
     9     3    17 ar  
    10     3    24 1   
    11     4    10 ar  
    12     4    25 1   
    13     5     6 2   
    14     5    14 1   
    15     5    30 1   
    16     6    13 1   
    17     6    26 1   
    18     7     9 1   
    19     7    18 1   
    20     7    27 1   
    21     8     9 2   
    22     9    12 2   
    23     9    17 1   
    24    11    18 1   
    25    11    19 1   
    26    11    28 1   
    27    13    19 1   
    28    14    19 2   
    29    15    18 2   
    30    16    17 ar  
    31    16    29 1   
@<TRIPOS>SUBSTRUCTURE
     1 7GC         1 TEMP              0 ****  ****    0 ROOT
