@<TRIPOS>MOLECULE
molecule
   34    35     1     0     0
SMALL
bcc


@<TRIPOS>ATOM
      1 C2           0.0000     0.0000     0.0000 c3         1 7GF       0.158000
      2 N3           1.4690     0.0000     0.0000 nz         1 7GF      -0.820600
      3 C4          -0.6500    -1.2110     2.1120 c          1 7GF       0.655300
      4 C1          -0.5030     0.0000     1.4210 ce         1 7GF      -0.364400
      5 O5          -1.0560    -1.2110     3.2600 o          1 7GF      -0.528000
      6 O6          -0.3420    -2.3770     1.5050 os         1 7GF      -0.450900
      7 C7          -0.5160    -3.5720     2.2680 c3         1 7GF       0.136700
      8 C8          -0.8140     1.1790     2.0360 c2         1 7GF       0.262200
      9 N9          -0.5800     2.4350     1.5450 n          1 7GF      -0.299200
     10 C10         -0.9310     3.5010     2.2430 c          1 7GF       0.695500
     11 C11         -1.5860     3.1860     3.5680 c3         1 7GF      -0.149300
     12 S12         -1.6050     1.3630     3.6110 ss         1 7GF       0.010300
     13 C13          0.0380     2.5910     0.2970 ca         1 7GF       0.018600
     14 C14         -0.7270     2.8620    -0.8290 ca         1 7GF      -0.147500
     15 C15         -0.1160     3.0160    -2.0570 ca         1 7GF      -0.107000
     16 C16          1.2590     2.9000    -2.1670 ca         1 7GF      -0.015900
     17 C17          2.0250     2.6300    -1.0470 ca         1 7GF      -0.107000
     18 C18          1.4180     2.4800     0.1860 ca         1 7GF      -0.147500
     19 Br           2.0930     3.1120    -3.8510 br         1 7GF      -0.012100
     20 O20         -0.7450     4.6340     1.8530 o          1 7GF      -0.518500
     21 H1          -1.5540    -3.6640     2.5630 h1         1 7GF       0.062033
     22 H2          -0.2340    -4.4290     1.6680 h1         1 7GF       0.062033
     23 H3           0.1090    -3.5300     3.1520 h1         1 7GF       0.062033
     24 H4          -0.9960     3.5790     4.3860 h1         1 7GF       0.137700
     25 H5          -2.5960     3.5770     3.5940 h1         1 7GF       0.137700
     26 H6          -1.8030     2.9530    -0.7440 ha         1 7GF       0.161500
     27 H7          -0.7120     3.2280    -2.9360 ha         1 7GF       0.174500
     28 H8           3.1010     2.5420    -1.1350 ha         1 7GF       0.174500
     29 H9           2.0180     2.2680     1.0630 ha         1 7GF       0.161500
     30 H10         -0.3610     0.9080    -0.4670 hx         1 7GF       0.120200
     31 H11         -0.3610    -0.8590    -0.5530 hx         1 7GF       0.120200
     32 H12          1.8020     0.4100     0.8500 hn         1 7GF       0.452133
     33 H13          1.8020    -0.9410    -0.0700 hn         1 7GF       0.452133
     34 H33          1.8020     0.5310    -0.7800 hn         1 7GF       0.452133
@<TRIPOS>BOND
     1     7     6 1
     2     5     3 2
     3     6     3 1
     4     3     4 1
     5     4     1 1
     6     4     8 2
     7    12     8 1
     8    12    11 1
     9     1     2 1
    10     8     9 1
    11    11    10 1
    12    14    15 ar
    13    14    13 ar
    14     9    10 1
    15     9    13 1
    16    10    20 2
    17    15    16 ar
    18    13    18 ar
    19    16    17 ar
    20    16    19 1
    21    18    17 ar
    22     7    21 1
    23     7    22 1
    24     7    23 1
    25    11    24 1
    26    11    25 1
    27    14    26 1
    28    15    27 1
    29    17    28 1
    30    18    29 1
    31     1    30 1
    32     1    31 1
    33     2    32 1
    34     2    33 1
    35    34     2 1
@<TRIPOS>SUBSTRUCTURE
     1 7GF         1 TEMP              0 ****  ****    0 ROOT
