@<TRIPOS>MOLECULE
7GF
   34    35     1     0     0
SMALL
bcc


@<TRIPOS>ATOM
      1 C2           0.0000     0.0000     0.0000 c3         1 7GF       0.006000
      2 N3           1.4690     0.0000     0.0000 nz         1 7GF      -0.009600
      3 C4          -0.6500    -1.2110     2.1120 c          1 7GF       0.711300
      4 C1          -0.5030     0.0000     1.4210 ce         1 7GF      -0.367400
      5 O5          -1.0560    -1.2110     3.2600 o          1 7GF      -0.539000
      6 O6          -0.3420    -2.3770     1.5050 os         1 7GF      -0.442900
      7 C7          -0.5160    -3.5720     2.2680 c3         1 7GF       0.272700
      8 C8          -0.8140     1.1790     2.0360 c2         1 7GF       0.165200
      9 N9          -0.5800     2.4350     1.5450 n          1 7GF       0.128800
     10 C10         -0.9310     3.5010     2.2430 c          1 7GF       0.594500
     11 C11         -1.5860     3.1860     3.5680 c3         1 7GF      -0.032300
     12 S12         -1.6050     1.3630     3.6110 ss         1 7GF      -0.136700
     13 C13          0.0380     2.5910     0.2970 ca         1 7GF      -0.126400
     14 C14         -0.7270     2.8620    -0.8290 ca         1 7GF      -0.121500
     15 C15         -0.1160     3.0160    -2.0570 ca         1 7GF      -0.071500
     16 C16          1.2590     2.9000    -2.1670 ca         1 7GF       0.019100
     17 C17          2.0250     2.6300    -1.0470 ca         1 7GF      -0.071500
     18 C18          1.4180     2.4800     0.1860 ca         1 7GF      -0.121500
     19 Br           2.0930     3.1120    -3.8510 br         1 7GF      -0.020100
     20 O20         -0.7450     4.6340     1.8530 o          1 7GF      -0.556500
     21 H1          -0.2340    -4.4290     1.6680 h1         1 7GF       0.012367
     22 H2           0.1080    -3.5300     3.1520 h1         1 7GF       0.012367
     23 H3          -1.5540    -3.6640     2.5630 h1         1 7GF       0.012367
     24 H4          -0.9960     3.5790     4.3860 h1         1 7GF       0.101200
     25 H5          -2.5960     3.5770     3.5940 h1         1 7GF       0.101200
     26 H6          -1.8030     2.9530    -0.7440 ha         1 7GF       0.134000
     27 H7          -0.7120     3.2280    -2.9360 ha         1 7GF       0.142000
     28 H8           3.1010     2.5420    -1.1350 ha         1 7GF       0.142000
     29 H9           2.0180     2.2680     1.0630 ha         1 7GF       0.134000
     30 H10         -0.3610    -0.8590    -0.5530 hx         1 7GF       0.102200
     31 H11         -0.3610     0.9080    -0.4670 hx         1 7GF       0.102200
     32 H12          1.8020    -0.9410    -0.0700 hn         1 7GF       0.240467
     33 H13          1.8020     0.4100     0.8500 hn         1 7GF       0.240467
     34 H33          1.8020     0.5310    -0.7800 hn         1 7GF       0.240467
@<TRIPOS>BOND
     1     1     2 1   
     2     1     4 1   
     3     1    30 1   
     4     1    31 1   
     5     2    32 1   
     6     2    33 1   
     7     2    34 1   
     8     3     4 1   
     9     3     5 2   
    10     3     6 1   
    11     4     8 2   
    12     6     7 1   
    13     7    21 1   
    14     7    22 1   
    15     7    23 1   
    16     8     9 1   
    17     8    12 1   
    18     9    10 1   
    19     9    13 1   
    20    10    11 1   
    21    10    20 2   
    22    11    12 1   
    23    11    24 1   
    24    11    25 1   
    25    13    14 ar  
    26    13    18 ar  
    27    14    15 ar  
    28    14    26 1   
    29    15    16 ar  
    30    15    27 1   
    31    16    17 ar  
    32    16    19 1   
    33    17    18 ar  
    34    17    28 1   
    35    18    29 1   
@<TRIPOS>SUBSTRUCTURE
     1 7GF         1 TEMP              0 ****  ****    0 ROOT
