@<TRIPOS>MOLECULE
molecule
   43    45     1     0     0
SMALL
bcc


@<TRIPOS>ATOM
      1 C14          0.0000     0.0000     0.0000 ca         1 7GG      -0.110500
      2 C10          4.1680    -0.6420     0.1930 ca         1 7GG       0.942900
      3 C12          2.0740     0.0000     1.2030 ca         1 7GG       0.160600
      4 C13          1.3810     0.0000     0.0000 ca         1 7GG      -0.146500
      5 C01          9.8390     1.7770    -2.3970 c3         1 7GG      -0.113600
      6 C02          8.4180     2.2770    -2.1330 c3         1 7GG       0.125800
      7 N03          7.6250     1.2020    -1.5320 nh         1 7GG      -0.614400
      8 C04          6.1630     1.2290    -1.6260 c3         1 7GG       0.125800
      9 C05          5.7210     0.4990    -2.8960 c3         1 7GG      -0.113600
     10 C06          8.2540     0.1660    -0.8780 c2         1 7GG       0.104000
     11 C08          6.2030    -1.1450    -0.7910 ca         1 7GG       0.650100
     12 N09          5.4900    -0.5490     0.1690 nb         1 7GG      -0.850000
     13 N11          3.4720    -0.0000     1.2070 nu         1 7GG      -0.758300
     14 C15         -0.6930     0.0060     1.1970 ca         1 7GG      -0.151000
     15 C16         -0.0060     0.0110     2.3960 ca         1 7GG      -0.110500
     16 C17          1.3750     0.0110     2.4040 ca         1 7GG      -0.146500
     17 N18          3.4880    -1.3170    -0.7170 nb         1 7GG      -0.780000
     18 C19          4.1210    -1.9450    -1.7150 ca         1 7GG       0.660300
     19 C20          5.5220    -1.8730    -1.7780 ca         1 7GG      -0.431800
     20 N21          5.8930    -2.5990    -2.8880 na         1 7GG      -0.242300
     21 C22          4.7600    -3.0750    -3.4510 cc         1 7GG       0.453700
     22 N23          3.7210    -2.6900    -2.7620 nd         1 7GG      -0.684700
     23 H1          -0.5410    -0.0020    -0.9380 ha         1 7GG       0.129500
     24 H2           1.9230    -0.0050    -0.9380 ha         1 7GG       0.145500
     25 H3          10.3270     1.5610    -1.4540 hc         1 7GG       0.050033
     26 H4           9.7990     0.8750    -2.9970 hc         1 7GG       0.050033
     27 H5          10.3980     2.5380    -2.9280 hc         1 7GG       0.050033
     28 H6           7.9630     2.5820    -3.0680 h1         1 7GG       0.081700
     29 H7           8.4520     3.1220    -1.4560 h1         1 7GG       0.081700
     30 H8           5.7360     0.7390    -0.7600 h1         1 7GG       0.081700
     31 H9           5.8220     2.2570    -1.6640 h1         1 7GG       0.081700
     32 H10          6.4430    -0.2710    -3.1400 hc         1 7GG       0.050033
     33 H11          4.7510     0.0450    -2.7320 hc         1 7GG       0.050033
     34 H12          5.6550     1.2050    -3.7150 hc         1 7GG       0.050033
     35 H13          7.7010     0.7790    -0.1770 h4         1 7GG       0.294000
     36 H14          7.2840    -1.2110    -1.8120 ha         1 7GG       0.061000
     37 H15          3.9700     0.4520     1.9480 hn         1 7GG       0.463800
     38 H16         -1.7760     0.0060     1.1940 ha         1 7GG       0.126000
     39 H17         -0.5520     0.0180     3.3320 ha         1 7GG       0.129500
     40 H18          1.9120     0.0130     3.3440 ha         1 7GG       0.145500
     41 H19          6.8270    -2.7460    -3.2160 hn         1 7GG       0.310700
     42 H20          4.7200    -3.6870    -4.3440 h5         1 7GG       0.079800
     43 C07          7.6680    -1.0390    -0.8140 ce         1 7GG      -0.478800
@<TRIPOS>BOND
     1    15    14 ar  
     2    15    16 ar  
     3    14     1 ar  
     4    16     3 ar  
     5     1     4 ar  
     6     3     4 ar  
     7     3    13 1   
     8    13     2 1   
     9     2    17 ar  
    10     2    12 ar  
    11    17    18 ar  
    12    12    11 ar  
    13     5     6 1   
    14    18    22 1   
    15    18    19 ar  
    16     6     7 1   
    17    22    21 2   
    18    11    19 ar  
    19    11    43 1   
    20    19    20 1   
    21     7     8 1   
    22     7    10 1   
    23    21    20 1   
    24    43    10 2   
    25     8     9 1   
    26     1    23 1   
    27     4    24 1   
    28     5    25 1   
    29     5    26 1   
    30     5    27 1   
    31     6    28 1   
    32     6    29 1   
    33     8    30 1   
    34     8    31 1   
    35     9    32 1   
    36     9    33 1   
    37     9    34 1   
    38    10    35 1   
    39    43    36 1   
    40    13    37 1   
    41    14    38 1   
    42    15    39 1   
    43    16    40 1   
    44    20    41 1   
    45    21    42 1   
@<TRIPOS>SUBSTRUCTURE
     1 7GG         1 TEMP              0 ****  ****    0 ROOT
