@<TRIPOS>MOLECULE
7GG
   43    45     1     0     0
SMALL
bcc


@<TRIPOS>ATOM
      1 C14          0.0000     0.0000     0.0000 ca         1 7GG      -0.080500
      2 C10          4.1680    -0.6420     0.1930 ca         1 7GG       0.691900
      3 C12          2.0740     0.0000     1.2030 ca         1 7GG       0.002600
      4 C13          1.3810     0.0000     0.0000 ca         1 7GG      -0.126000
      5 C01          9.8390     1.7770    -2.3970 c3         1 7GG      -0.034600
      6 C02          8.4180     2.2770    -2.1330 c3         1 7GG       0.112300
      7 N03          7.6250     1.2020    -1.5320 nh         1 7GG      -0.342400
      8 C04          6.1630     1.2290    -1.6260 c3         1 7GG       0.112300
      9 C05          5.7210     0.4990    -2.8960 c3         1 7GG      -0.034600
     10 C06          8.2540     0.1660    -0.8780 c2         1 7GG       0.039000
     11 C08          6.2030    -1.1450    -0.7910 ca         1 7GG       0.609100
     12 N09          5.4900    -0.5490     0.1690 nb         1 7GG      -0.696000
     13 N11          3.4720    -0.0000     1.2070 nu         1 7GG      -0.293300
     14 C15         -0.6930     0.0060     1.1970 ca         1 7GG      -0.125000
     15 C16         -0.0060     0.0110     2.3960 ca         1 7GG      -0.080500
     16 C17          1.3750     0.0110     2.4040 ca         1 7GG      -0.126000
     17 N18          3.4880    -1.3170    -0.7170 nb         1 7GG      -0.647000
     18 C19          4.1210    -1.9450    -1.7150 ca         1 7GG       0.568300
     19 C20          5.5220    -1.8730    -1.7780 ca         1 7GG      -0.567800
     20 N21          5.8930    -2.5990    -2.8880 na         1 7GG       0.307700
     21 C22          4.7600    -3.0750    -3.4510 cc         1 7GG       0.255700
     22 N23          3.7210    -2.6900    -2.7620 nd         1 7GG      -0.603700
     23 H1          -0.5410    -0.0020    -0.9380 ha         1 7GG       0.100500
     24 H2           1.9230    -0.0050    -0.9380 ha         1 7GG       0.123000
     25 H3           9.7970     0.8190    -2.9020 hc         1 7GG       0.014700
     26 H4          10.3630     2.4900    -3.0210 hc         1 7GG       0.014700
     27 H5          10.3640     1.6660    -1.4560 hc         1 7GG       0.014700
     28 H6           8.4520     3.1220    -1.4560 h1         1 7GG       0.040450
     29 H7           7.9630     2.5820    -3.0680 h1         1 7GG       0.040450
     30 H8           5.8220     2.2570    -1.6640 h1         1 7GG       0.040450
     31 H9           5.7360     0.7390    -0.7600 h1         1 7GG       0.040450
     32 H10          5.7370     1.1860    -3.7330 hc         1 7GG       0.014700
     33 H11          6.3970    -0.3250    -3.0920 hc         1 7GG       0.014700
     34 H12          4.7160     0.1170    -2.7620 hc         1 7GG       0.014700
     35 H13          9.3370     0.2010    -0.8650 h4         1 7GG       0.118000
     36 H14          8.2090    -1.8340    -0.3150 ha         1 7GG       0.125000
     37 H15          3.9710     0.4540     1.9460 hn         1 7GG       0.291800
     38 H16         -1.7760     0.0060     1.1940 ha         1 7GG       0.100000
     39 H17         -0.5520     0.0180     3.3320 ha         1 7GG       0.100500
     40 H18          1.9120     0.0130     3.3440 ha         1 7GG       0.123000
     41 H19          6.8270    -2.7460    -3.2160 hn         1 7GG       0.132700
     42 H20          4.7200    -3.6870    -4.3440 h5         1 7GG       0.028800
     43 C07          7.6680    -1.0390    -0.8140 ce         1 7GG      -0.433800
@<TRIPOS>BOND
     1     1     4 ar  
     2     1    14 ar  
     3     1    23 1   
     4     2    12 ar  
     5     2    13 1   
     6     2    17 ar  
     7     3     4 ar  
     8     3    13 1   
     9     3    16 ar  
    10     4    24 1   
    11     5     6 1   
    12     5    25 1   
    13     5    26 1   
    14     5    27 1   
    15     6     7 1   
    16     6    28 1   
    17     6    29 1   
    18     7     8 1   
    19     7    10 1   
    20     8     9 1   
    21     8    30 1   
    22     8    31 1   
    23     9    32 1   
    24     9    33 1   
    25     9    34 1   
    26    10    35 1   
    27    10    43 2   
    28    11    12 ar  
    29    11    19 ar  
    30    11    43 1   
    31    13    37 1   
    32    14    15 ar  
    33    14    38 1   
    34    15    16 ar  
    35    15    39 1   
    36    16    40 1   
    37    17    18 ar  
    38    18    19 ar  
    39    18    22 1   
    40    19    20 1   
    41    20    21 1   
    42    20    41 1   
    43    21    22 2   
    44    21    42 1   
    45    36    43 1   
@<TRIPOS>SUBSTRUCTURE
     1 7GG         1 TEMP              0 ****  ****    0 ROOT
