@<TRIPOS>MOLECULE
molecule
   55    58     1     0     0
SMALL
bcc


@<TRIPOS>ATOM
      1 C4           0.0000     0.0000     0.0000 ca         1 7GJ       0.676300
      2 C5           1.4050     0.0000     0.0000 ca         1 7GJ      -0.409800
      3 C6           2.0760     0.0000     1.2220 ca         1 7GJ       0.734600
      4 C8           0.6540     0.0000    -2.0680 cc         1 7GJ       0.458700
      5 N1           1.3610    -0.0010     2.3410 nb         1 7GJ      -0.866000
      6 N3          -0.6420    -0.0000     1.1720 nb         1 7GJ      -0.777000
      7 CAL          6.5270    -0.8970     3.0850 c3         1 7GJ      -0.079900
      8 CAJ          8.0190    -1.0200     2.7720 c3         1 7GJ      -0.081900
      9 CAI          8.5160     0.2820     2.1390 c3         1 7GJ      -0.081400
     10 CAK          7.7430     0.5470     0.8460 c3         1 7GJ      -0.081900
     11 CAM          6.2510     0.6700     1.1600 c3         1 7GJ      -0.079900
     12 CBB          5.7540    -0.6300     1.7920 c3         1 7GJ      -0.046700
     13 CAN          4.0370    -0.0000     2.5600 c3         1 7GJ       0.099400
     14 O6           3.4300    -0.0010     1.2660 os         1 7GJ      -0.423100
     15 N7           1.7860    -0.0010    -1.3270 na         1 7GJ      -0.239300
     16 N9          -0.3910     0.0040    -1.2880 nd         1 7GJ      -0.681700
     17 C2           0.0340    -0.0000     2.3070 ca         1 7GJ       0.966900
     18 CAV         -2.0580    -0.1300     3.5000 ca         1 7GJ       0.152600
     19 CAH         -2.6700    -0.9970     2.6100 ca         1 7GJ      -0.057000
     20 CAE         -2.8270     0.6070     4.3930 ca         1 7GJ      -0.143000
     21 CAD         -4.2040     0.4820     4.3940 ca         1 7GJ      -0.126000
     22 CAF         -4.8230    -0.3760     3.5070 ca         1 7GJ      -0.167000
     23 CAW         -4.0590    -1.1230     2.6100 ca         1 7GJ      -0.126600
     24 CAU         -4.7210    -2.0460     1.6620 c          1 7GJ       0.681700
     25 OAC         -4.0950    -2.9680     1.1740 o          1 7GJ      -0.601100
     26 NBC         -6.0170    -1.8660     1.3390 n          1 7GJ      -0.495800
     27 CAB         -6.6100    -2.6280     0.2380 c3         1 7GJ       0.096300
     28 CAA         -6.8330    -0.9100     2.0910 c3         1 7GJ       0.096300
     29 H1           0.6210    -0.0020    -3.1510 h5         1 7GJ       0.078800
     30 H2          -0.1720     0.0700     4.3720 hn         1 7GJ       0.464800
     31 H4           6.1750    -1.8200     3.5300 hc         1 7GJ       0.045950
     32 H5           8.5660    -1.2050     3.6890 hc         1 7GJ       0.042450
     33 H6           8.1760    -1.8390     2.0800 hc         1 7GJ       0.042450
     34 H7           9.5720     0.1930     1.9150 hc         1 7GJ       0.042200
     35 H8           8.3550     1.1010     2.8290 hc         1 7GJ       0.042200
     36 H9           8.0950     1.4700     0.4000 hc         1 7GJ       0.042450
     37 H10          7.9000    -0.2750     0.1580 hc         1 7GJ       0.042450
     38 H11          5.7040     0.8560     0.2430 hc         1 7GJ       0.045950
     39 H12          6.0950     1.4890     1.8520 hc         1 7GJ       0.045950
     40 H13          5.6800    -1.5490     1.2220 hc         1 7GJ       0.082700
     41 H14          3.6550    -0.7440     3.2490 h1         1 7GJ       0.063700
     42 H15          4.1980     0.9320     3.0880 h1         1 7GJ       0.063700
     43 H16          2.7240    -0.0030    -1.6760 hn         1 7GJ       0.309700
     44 H18         -2.0720    -1.5750     1.9160 ha         1 7GJ       0.178000
     45 H19         -2.3460     1.2810     5.0920 ha         1 7GJ       0.130000
     46 H20         -4.7980     1.0600     5.0910 ha         1 7GJ       0.130000
     47 H21         -5.9030    -0.4710     3.5100 ha         1 7GJ       0.162000
     48 H22         -7.6870    -2.5190     0.2620 h1         1 7GJ       0.043367
     49 H23         -6.2310    -2.2530    -0.7060 h1         1 7GJ       0.043367
     50 H24         -6.3500    -3.6740     0.3410 h1         1 7GJ       0.043367
     51 H25         -6.9360    -1.2500     3.1140 h1         1 7GJ       0.043367
     52 H26         -6.3530     0.0610     2.0790 h1         1 7GJ       0.043367
     53 H27         -7.8120    -0.8350     1.6350 h1         1 7GJ       0.043367
     54 N2          -0.6650     0.0000     3.5040 nu         1 7GJ      -0.761300
     55 H3           6.3700    -0.0760     3.7730 hc         1 7GJ       0.045950
@<TRIPOS>BOND
     1     4    15 1
     2     4    16 2
     3    15     2 1
     4     8     7 1
     5     8     9 1
     6    16     1 1
     7     7    12 1
     8     9    10 1
     9     2     1 ar
    10     2     3 ar
    11    14     3 1
    12    14    13 1
    13     1     6 ar
    14     3     5 ar
    15    12    13 1
    16    12    11 1
    17    10    11 1
    18     6    17 ar
    19     5    17 ar
    20    17    54 1
    21    28    26 1
    22    54    18 1
    23    27    26 1
    24    26    24 1
    25    19    18 ar
    26    19    23 ar
    27    18    20 ar
    28    24    23 1
    29    24    25 2
    30    23    22 ar
    31    20    21 ar
    32    22    21 ar
    33     4    29 1
    34    54    30 1
    35     7    55 1
    36     7    31 1
    37     8    32 1
    38     8    33 1
    39     9    34 1
    40     9    35 1
    41    10    36 1
    42    10    37 1
    43    11    38 1
    44    11    39 1
    45    12    40 1
    46    13    41 1
    47    13    42 1
    48    15    43 1
    49    19    44 1
    50    20    45 1
    51    21    46 1
    52    22    47 1
    53    27    48 1
    54    27    49 1
    55    27    50 1
    56    28    51 1
    57    28    52 1
    58    28    53 1
@<TRIPOS>SUBSTRUCTURE
     1 7GJ         1 TEMP              0 ****  ****    0 ROOT
