@<TRIPOS>MOLECULE
7GK
   40    43     1     0     0
SMALL
bcc


@<TRIPOS>ATOM
      1 CAR          0.0000     0.0000     0.0000 c3         1 7GK       0.056800
      2 CAS          1.5300     0.0000     0.0000 c3         1 7GK       0.121300
      3 NAT          2.0180     0.0000     1.3860 n7         1 7GK      -0.569200
      4 CAU          1.5310     1.1810     2.1130 c3         1 7GK       0.121300
      5 CAV         -0.0010     1.1800     2.1140 c3         1 7GK       0.056800
      6 NAQ         -0.4880     1.1810     0.7270 nh         1 7GK      -0.266000
      7 CAN         -1.8800     1.2520     0.6870 ca         1 7GK      -0.002400
      8 CAO         -2.5400     2.3010     1.3190 ca         1 7GK      -0.149500
      9 CAP         -3.9150     2.3750     1.2810 ca         1 7GK      -0.054500
     10 CAM         -2.6060     0.2780     0.0110 ca         1 7GK      -0.149500
     11 CAL         -3.9810     0.3470    -0.0320 ca         1 7GK      -0.054500
     12 CAJ         -4.6470     1.3960     0.6070 ca         1 7GK      -0.047800
     13 CAH         -6.1220     1.4710     0.5640 cc         1 7GK      -0.126300
     14 CAI         -6.9370     0.5810    -0.0570 cd         1 7GK      -0.152200
     15 CAE         -8.2680     1.0110     0.1370 ca         1 7GK      -0.205100
     16 CAD         -9.5270     0.5080    -0.2640 ca         1 7GK       0.091000
     17 CAK         -9.6310    -0.6910    -1.0380 cg         1 7GK       0.233800
     18 NAW         -9.6960    -1.6400    -1.6590 n1         1 7GK      -0.376800
     19 CAA        -10.6650     1.2210     0.1230 ca         1 7GK      -0.213300
     20 CAB        -10.5200     2.3740     0.8720 ca         1 7GK       0.410200
     21 NAC         -9.3350     2.8210     1.2320 nb         1 7GK      -0.540000
     22 CAF         -8.2150     2.1950     0.9010 ca         1 7GK       0.223800
     23 NAG         -6.8870     2.4530     1.1550 na         1 7GK       0.233900
     24 H1          -0.1430    -0.1280    -1.0660 h1         1 7GK       0.021700
     25 H2          -0.2750    -1.0230     0.2260 h1         1 7GK       0.021700
     26 H3           1.9150    -0.9770    -0.2680 h1         1 7GK       0.039450
     27 H4           2.0920     0.8390    -0.3920 h1         1 7GK       0.039450
     28 H5           1.8160    -0.8980     1.7780 hn         1 7GK       0.260800
     29 H7           1.7480     1.2410     3.1720 h1         1 7GK       0.039450
     30 H8           1.3770     2.2250     1.8680 h1         1 7GK       0.039450
     31 H9          -0.1290     0.3810     2.8330 h1         1 7GK       0.021700
     32 H10         -0.4350     1.8740     2.8240 h1         1 7GK       0.021700
     33 H11         -1.7190     2.8730     1.7360 ha         1 7GK       0.127000
     34 H12         -4.3660     3.1540     1.8830 ha         1 7GK       0.109000
     35 H13         -2.1610    -0.5210    -0.5690 ha         1 7GK       0.127000
     36 H14         -4.5030    -0.4990    -0.4630 ha         1 7GK       0.109000
     37 H15         -6.8030    -0.1460    -0.8490 ha         1 7GK       0.144000
     38 H16        -11.6070     0.7200    -0.0690 ha         1 7GK       0.123000
     39 H17        -11.4330     2.7390     1.3270 h4         1 7GK      -0.015900
     40 H18         -6.6530     3.4250     1.1210 hn         1 7GK       0.128700
@<TRIPOS>BOND
     1     1     2 1   
     2     1     6 1   
     3     1    24 1   
     4     1    25 1   
     5     2     3 1   
     6     2    26 1   
     7     2    27 1   
     8     3     4 1   
     9     3    28 1   
    10     4     5 1   
    11     4    29 1   
    12     4    30 1   
    13     5     6 1   
    14     5    31 1   
    15     5    32 1   
    16     6     7 1   
    17     7     8 ar  
    18     7    10 ar  
    19     8     9 ar  
    20     8    33 1   
    21     9    12 ar  
    22     9    34 1   
    23    10    11 ar  
    24    10    35 1   
    25    11    12 ar  
    26    11    36 1   
    27    12    13 1   
    28    13    14 2   
    29    13    23 1   
    30    14    15 1   
    31    14    37 1   
    32    15    16 ar  
    33    15    22 ar  
    34    16    17 1   
    35    16    19 ar  
    36    17    18 3   
    37    19    20 ar  
    38    19    38 1   
    39    20    21 ar  
    40    20    39 1   
    41    21    22 ar  
    42    22    23 1   
    43    23    40 1   
@<TRIPOS>SUBSTRUCTURE
     1 7GK         1 TEMP              0 ****  ****    0 ROOT
