@<TRIPOS>MOLECULE
7GL
   42    44     1     0     0
SMALL
bcc


@<TRIPOS>ATOM
      1 C13          0.0000     0.0000     0.0000 ca         1 7GL      -0.137000
      2 C18          2.1330     0.0000     3.7060 c3         1 7GL       0.062700
      3 C17          2.0810     0.0000     1.2050 ca         1 7GL      -0.137000
      4 C16          1.3840     0.0010     2.3980 ca         1 7GL      -0.070300
      5 C15          0.0020     0.0120     2.3940 ca         1 7GL      -0.093000
      6 C19         -2.1970     0.0050     1.1980 c3         1 7GL       0.062700
      7 C21          5.3840     0.6070    -4.9890 c3         1 7GL       0.174100
      8 C11          5.4080     2.8660     2.0140 c          1 7GL       0.417300
      9 C12          1.3880     0.0000     0.0000 ca         1 7GL      -0.002400
     10 C1           5.7520     1.9410    -1.4750 cc         1 7GL      -0.270300
     11 N2           5.0420     1.9200    -0.3130 na         1 7GL       0.780200
     12 N3           3.8120     1.2590    -0.2490 nc         1 7GL      -0.882800
     13 C4           3.3170     0.6490    -1.3030 cd         1 7GL       0.634200
     14 C5           4.0130     0.6450    -2.5200 cd         1 7GL      -0.444300
     15 C6           5.2290     1.2870    -2.6160 cc         1 7GL       0.185600
     16 N7           6.8790     2.6230    -1.2750 nd         1 7GL      -0.207600
     17 C8           6.9250     3.0510    -0.0240 cd         1 7GL       0.159600
     18 C9           5.7720     2.6230     0.6190 cc         1 7GL      -0.530300
     19 N10          2.0890    -0.0010    -1.2090 nu         1 7GL      -0.257300
     20 C14         -0.6900     0.0050     1.1960 ca         1 7GL      -0.070300
     21 N20          5.9350     1.2870    -3.8150 nu         1 7GL      -0.293600
     22 N22          4.4200     2.1490     2.5870 nz         1 7GL       0.174600
     23 O23          5.9950     3.7160     2.6570 o          1 7GL      -0.456100
     24 H27         -0.5420    -0.0020    -0.9380 ha         1 7GL       0.119500
     25 H31          1.6120    -0.6260     4.4200 hc         1 7GL       0.010200
     26 H32          3.1330    -0.3860     3.5500 hc         1 7GL       0.010200
     27 H30          2.1930     1.0120     4.0890 hc         1 7GL       0.010200
     28 H29          3.1640    -0.0000     1.2090 ha         1 7GL       0.119500
     29 H28         -0.5410     0.0160     3.3320 ha         1 7GL       0.121000
     30 H33         -2.5570    -0.9840     1.4500 hc         1 7GL       0.010200
     31 H34         -2.5590     0.2820     0.2150 hc         1 7GL       0.010200
     32 H35         -2.5570     0.7180     1.9290 hc         1 7GL       0.010200
     33 H37          5.2500    -0.4450    -4.7660 h1         1 7GL       0.024367
     34 H38          6.0670     0.7150    -5.8230 h1         1 7GL       0.024367
     35 H39          4.4280     1.0460    -5.2460 h1         1 7GL       0.024367
     36 H24          3.4580     0.1180    -3.2870 ha         1 7GL       0.155000
     37 H25          7.7230     3.6330     0.4210 h4         1 7GL       0.167000
     38 H26          1.7200    -0.4900    -2.0000 hn         1 7GL       0.302800
     39 H36          6.8070     1.7740    -3.8820 hn         1 7GL       0.316800
     40 H41          3.5410     2.4170     2.1920 hn         1 7GL       0.255467
     41 H40          4.4100     2.3230     3.5730 hn         1 7GL       0.255467
     42 H223         4.5770     1.1740     2.4220 hn         1 7GL       0.255467
@<TRIPOS>BOND
     1     1     9 ar  
     2     1    20 ar  
     3     1    24 1   
     4     2     4 1   
     5     2    25 1   
     6     2    26 1   
     7     2    27 1   
     8     3     4 ar  
     9     3     9 ar  
    10     3    28 1   
    11     4     5 ar  
    12     5    20 ar  
    13     5    29 1   
    14     6    20 1   
    15     6    30 1   
    16     6    31 1   
    17     6    32 1   
    18     7    21 1   
    19     7    33 1   
    20     7    34 1   
    21     7    35 1   
    22     8    18 1   
    23     8    22 1   
    24     8    23 2   
    25     9    19 1   
    26    10    11 1   
    27    10    15 1   
    28    10    16 2   
    29    11    12 1   
    30    11    18 1   
    31    12    13 2   
    32    13    14 1   
    33    13    19 1   
    34    14    15 2   
    35    14    36 1   
    36    15    21 1   
    37    16    17 1   
    38    17    18 2   
    39    17    37 1   
    40    19    38 1   
    41    21    39 1   
    42    22    40 1   
    43    22    41 1   
    44    22    42 1   
@<TRIPOS>SUBSTRUCTURE
     1 7GL         1 TEMP              0 ****  ****    0 ROOT
