@<TRIPOS>MOLECULE
7GM
   42    44     1     0     0
SMALL
bcc


@<TRIPOS>ATOM
      1 C13          0.0000     0.0000     0.0000 ca         1 7GM      -0.180500
      2 C17         -0.0010    -0.0020     2.4030 ca         1 7GM      -0.180500
      3 C14          1.3800     0.0000     0.0000 ca         1 7GM      -0.056000
      4 C16          1.3800    -0.0010     2.4050 ca         1 7GM      -0.056000
      5 C12         -0.6940    -0.0010     1.2020 ca         1 7GM       0.157100
      6 C15          2.0750     0.0000     1.2030 ca         1 7GM       0.011900
      7 C9          -7.3160     4.2450    -0.5530 cx         1 7GM      -0.084900
      8 C10         -6.2650     4.3470    -1.6600 cx         1 7GM      -0.084900
      9 C3          -2.2010     1.2880    -0.8650 c3         1 7GM      -0.082400
     10 C4          -3.4550     2.1580    -1.0970 c3         1 7GM       0.150800
     11 C6          -4.2170     0.2990     0.1110 c3         1 7GM       0.152800
     12 C8          -5.9160     3.6700    -0.3330 cx         1 7GM      -0.111700
     13 C2          -2.7030     0.0650    -0.0710 c3         1 7GM       0.155800
     14 C1          -2.4540    -1.2210    -0.8620 c3         1 7GM      -0.045100
     15 C19          4.2450    -0.0010     2.9710 c3         1 7GM       0.110000
     16 N5          -4.3860     1.7700    -0.0060 n3         1 7GM      -0.533600
     17 O11         -2.0540    -0.0010     1.2010 os         1 7GM      -0.285900
     18 S18          3.8370     0.0000     1.2030 ss         1 7GM      -0.340000
     19 H13         -0.5420     0.0000    -0.9380 ha         1 7GM       0.132000
     20 H14          1.9220     0.0010    -0.9380 ha         1 7GM       0.113500
     21 H17         -0.5440    -0.0030     3.3410 ha         1 7GM       0.132000
     22 H16          1.9200    -0.0020     3.3440 ha         1 7GM       0.113500
     23 H92C        -7.5300     5.1670    -0.0260 hc         1 7GM       0.044450
     24 H101        -5.8370     5.3310    -1.8100 hc         1 7GM       0.044450
     25 H102        -6.4070     3.6810    -2.5020 hc         1 7GM       0.044450
     26 H8          -5.2820     4.2550     0.3220 hc         1 7GM       0.071700
     27 H31C        -1.7820     0.9740    -1.8140 hc         1 7GM       0.042700
     28 H32C        -1.4670     1.8350    -0.2860 hc         1 7GM       0.042700
     29 H41C        -3.2030     3.2090    -1.0210 h1         1 7GM       0.016700
     30 H42C        -3.8940     1.9370    -2.0630 h1         1 7GM       0.016700
     31 H61C        -4.7730    -0.2070    -0.6690 h1         1 7GM       0.027700
     32 H62C        -4.5350    -0.0400     1.0900 h1         1 7GM       0.027700
     33 H11C        -1.7250    -1.8300    -0.3410 hc         1 7GM       0.021367
     34 H12C        -3.3820    -1.7710    -0.9580 hc         1 7GM       0.021367
     35 H13C        -2.0780    -0.9720    -1.8470 hc         1 7GM       0.021367
     36 H191         3.8300     0.8840     3.4380 h1         1 7GM       0.035367
     37 H192         3.8270    -0.8850     3.4370 h1         1 7GM       0.035367
     38 H193         5.3210    -0.0030     3.0930 h1         1 7GM       0.035367
     39 C7          -5.7730     2.1150    -0.3500 c3         1 7GM       0.195800
     40 H91C        -8.1000     3.5170    -0.7180 hc         1 7GM       0.044450
     41 H71C        -6.0100     1.7410    -1.3380 h1         1 7GM       0.011200
     42 H72C        -6.4530     1.6820     0.3730 h1         1 7GM       0.011200
@<TRIPOS>BOND
     1     1     3 ar  
     2     1     5 ar  
     3     1    19 1   
     4     2     4 ar  
     5     2     5 ar  
     6     2    21 1   
     7     3     6 ar  
     8     3    20 1   
     9     4     6 ar  
    10     4    22 1   
    11     5    17 1   
    12     6    18 1   
    13     7     8 1   
    14     7    12 1   
    15     7    23 1   
    16     7    40 1   
    17     8    12 1   
    18     8    24 1   
    19     8    25 1   
    20     9    10 1   
    21     9    13 1   
    22     9    27 1   
    23     9    28 1   
    24    10    16 1   
    25    10    29 1   
    26    10    30 1   
    27    11    13 1   
    28    11    16 1   
    29    11    31 1   
    30    11    32 1   
    31    12    26 1   
    32    12    39 1   
    33    13    14 1   
    34    13    17 1   
    35    14    33 1   
    36    14    34 1   
    37    14    35 1   
    38    15    18 1   
    39    15    36 1   
    40    15    37 1   
    41    15    38 1   
    42    16    39 1   
    43    39    41 1   
    44    39    42 1   
@<TRIPOS>SUBSTRUCTURE
     1 7GM         1 TEMP              0 ****  ****    0 ROOT
