@<TRIPOS>MOLECULE
molecule
   42    44     1     0     0
SMALL
bcc


@<TRIPOS>ATOM
      1 C13          0.0000     0.0000     0.0000 ca         1 7GM      -0.180500
      2 C17         -0.0010    -0.0020     2.4030 ca         1 7GM      -0.180500
      3 C14          1.3800     0.0000     0.0000 ca         1 7GM      -0.094500
      4 C16          1.3800    -0.0010     2.4050 ca         1 7GM      -0.094500
      5 C12         -0.6940    -0.0010     1.2020 ca         1 7GM       0.138100
      6 C15          2.0750     0.0000     1.2030 ca         1 7GM       0.001900
      7 C9          -7.3160     4.2450    -0.5530 cx         1 7GM      -0.142400
      8 C10         -6.2650     4.3470    -1.6600 cx         1 7GM      -0.142400
      9 C3          -2.2010     1.2880    -0.8650 c3         1 7GM      -0.116400
     10 C4          -3.4550     2.1580    -1.0970 c3         1 7GM       0.142800
     11 C6          -4.2170     0.2990     0.1110 c3         1 7GM       0.156800
     12 C8          -5.9160     3.6700    -0.3330 cx         1 7GM      -0.128700
     13 C2          -2.7030     0.0650    -0.0710 c3         1 7GM       0.147800
     14 C1          -2.4540    -1.2210    -0.8620 c3         1 7GM      -0.121100
     15 C19          4.2450    -0.0010     2.9710 c3         1 7GM      -0.016000
     16 N5          -4.3860     1.7700    -0.0060 n3         1 7GM      -0.689600
     17 O11         -2.0540    -0.0010     1.2010 os         1 7GM      -0.311900
     18 S18          3.8370     0.0000     1.2030 ss         1 7GM      -0.265000
     19 H13         -0.5420     0.0000    -0.9380 ha         1 7GM       0.147000
     20 H14          1.9220     0.0010    -0.9380 ha         1 7GM       0.137500
     21 H17         -0.5440    -0.0030     3.3410 ha         1 7GM       0.147000
     22 H16          1.9200    -0.0020     3.3440 ha         1 7GM       0.137500
     23 H92C        -7.5300     5.1670    -0.0260 hc         1 7GM       0.072950
     24 H101        -5.8370     5.3310    -1.8100 hc         1 7GM       0.072950
     25 H102        -6.4070     3.6810    -2.5020 hc         1 7GM       0.072950
     26 H8          -5.2820     4.2550     0.3220 hc         1 7GM       0.096700
     27 H31C        -1.7820     0.9740    -1.8140 hc         1 7GM       0.064700
     28 H32C        -1.4670     1.8350    -0.2860 hc         1 7GM       0.064700
     29 H41C        -3.2030     3.2090    -1.0210 h1         1 7GM       0.045700
     30 H42C        -3.8940     1.9370    -2.0630 h1         1 7GM       0.045700
     31 H61C        -4.7730    -0.2070    -0.6690 h1         1 7GM       0.057200
     32 H62C        -4.5350    -0.0400     1.0900 h1         1 7GM       0.057200
     33 H11C        -1.7250    -1.8300    -0.3410 hc         1 7GM       0.049033
     34 H12C        -3.3820    -1.7710    -0.9580 hc         1 7GM       0.049033
     35 H13C        -2.0780    -0.9720    -1.8470 hc         1 7GM       0.049033
     36 H191         3.8300     0.8840     3.4380 h1         1 7GM       0.064367
     37 H192         3.8270    -0.8850     3.4370 h1         1 7GM       0.064367
     38 H193         5.3210    -0.0030     3.0930 h1         1 7GM       0.064367
     39 C7          -5.7730     2.1150    -0.3500 c3         1 7GM       0.184800
     40 H91C        -8.1000     3.5170    -0.7180 hc         1 7GM       0.072950
     41 H71C        -6.0100     1.7410    -1.3380 h1         1 7GM       0.039200
     42 H72C        -6.4530     1.6820     0.3730 h1         1 7GM       0.039200
@<TRIPOS>BOND
     1     1     3 ar
     2     1     5 ar
     3     2     4 ar
     4     2     5 ar
     5     3     6 ar
     6     4     6 ar
     7     5    17 1
     8     6    18 1
     9     7     8 1
    10     7    12 1
    11     8    12 1
    12     9    10 1
    13     9    13 1
    14    10    16 1
    15    11    13 1
    16    11    16 1
    17    12    39 1
    18    13    14 1
    19    13    17 1
    20    15    18 1
    21    39    16 1
    22     1    19 1
    23     3    20 1
    24     2    21 1
    25     4    22 1
    26     7    40 1
    27     7    23 1
    28     8    24 1
    29     8    25 1
    30    12    26 1
    31     9    27 1
    32     9    28 1
    33    10    29 1
    34    10    30 1
    35    11    31 1
    36    11    32 1
    37    39    41 1
    38    39    42 1
    39    14    33 1
    40    14    34 1
    41    14    35 1
    42    15    36 1
    43    15    37 1
    44    15    38 1
@<TRIPOS>SUBSTRUCTURE
     1 7GM         1 TEMP              0 ****  ****    0 ROOT
