@<TRIPOS>MOLECULE
molecule
   36    36     1     0     0
SMALL
bcc


@<TRIPOS>ATOM
      1 C1           0.0000     0.0000     0.0000 c3         1 7GP       0.304500
      2 C2           1.5300     0.0000     0.0000 c3         1 7GP       0.096100
      3 O2           2.0090    -1.1680    -0.6700 oh         1 7GP      -0.592800
      4 C3           2.0300     0.0000     1.4500 c3         1 7GP       0.118100
      5 O3           3.4510     0.1500     1.4710 oh         1 7GP      -0.604800
      6 C4           1.3770     1.1720     2.1920 c3         1 7GP       0.103100
      7 O4           1.7120     1.1070     3.5800 oh         1 7GP      -0.598800
      8 C5          -0.1410     1.0850     2.0260 c3         1 7GP       0.138100
      9 O5          -0.4820     1.1770     0.6430 os         1 7GP      -0.394600
     10 C6          -0.8020     2.2330     2.7910 c3         1 7GP       0.151400
     11 O6          -2.2230     2.0830     2.7400 oh         1 7GP      -0.595800
     12 N1          -0.4860    -0.0350    -1.3810 ns         1 7GP      -0.546900
     13 C7          -1.6110    -0.7140    -1.6830 c          1 7GP       0.629100
     14 O7          -2.2190    -1.2980    -0.8100 o          1 7GP      -0.549100
     15 C8          -2.1070    -0.7490    -3.0920 c          1 7GP       0.580100
     16 O8          -1.4980    -0.1660    -3.9640 o          1 7GP      -0.548000
     17 C9          -3.7110    -1.4620    -4.7630 c3         1 7GP       0.152400
     18 O9          -3.2290    -1.4270    -3.3930 os         1 7GP      -0.402900
     19 C10         -4.9930    -2.2940    -4.8310 c3         1 7GP      -0.095100
     20 H1          -0.3580    -0.8720     0.5340 h2         1 7GP       0.094700
     21 H2           1.8910     0.8870    -0.5060 h1         1 7GP       0.057700
     22 HO2          2.6310    -0.9180    -1.3330 ho         1 7GP       0.414000
     23 H3           1.7510    -0.9310     1.9280 h1         1 7GP       0.066700
     24 HO3          3.8410    -0.6010     1.8860 ho         1 7GP       0.417000
     25 H4           1.7330     2.1060     1.7720 h1         1 7GP       0.057700
     26 HO4          2.3530     1.7680     3.7800 ho         1 7GP       0.414000
     27 H5          -0.4900     0.1370     2.4170 h1         1 7GP       0.072700
     28 H61         -0.4740     2.2160     3.8230 h1         1 7GP       0.035700
     29 H62         -0.5230     3.1770     2.3390 h1         1 7GP       0.035700
     30 HO6         -2.6270     2.7230     3.3020 ho         1 7GP       0.404000
     31 HN1          0.0090     0.4560    -2.0980 hn         1 7GP       0.336500
     32 H91         -3.9180    -0.4520    -5.0990 h1         1 7GP       0.048200
     33 H92         -2.9570    -1.9070    -5.4010 h1         1 7GP       0.048200
     34 H101        -5.7470    -1.8490    -4.1930 hc         1 7GP       0.050700
     35 H102        -4.7870    -3.3030    -4.4950 hc         1 7GP       0.050700
     36 H103        -5.3540    -2.3200    -5.8520 hc         1 7GP       0.050700
@<TRIPOS>BOND
     1     1     2 1   
     2     1     9 1   
     3     1    12 1   
     4     1    20 1   
     5     2     3 1   
     6     2     4 1   
     7     2    21 1   
     8     3    22 1   
     9     4     5 1   
    10     4     6 1   
    11     4    23 1   
    12     5    24 1   
    13     6     7 1   
    14     6     8 1   
    15     6    25 1   
    16     7    26 1   
    17     8     9 1   
    18     8    10 1   
    19     8    27 1   
    20    10    11 1   
    21    10    28 1   
    22    10    29 1   
    23    11    30 1   
    24    12    13 1   
    25    12    31 1   
    26    13    14 2   
    27    13    15 1   
    28    15    16 2   
    29    15    18 1   
    30    17    18 1   
    31    17    19 1   
    32    17    32 1   
    33    17    33 1   
    34    19    34 1   
    35    19    35 1   
    36    19    36 1   
@<TRIPOS>SUBSTRUCTURE
     1 7GP         1 TEMP              0 ****  ****    0 ROOT
