@<TRIPOS>MOLECULE
7GR
   52    52     1     0     0
SMALL
bcc


@<TRIPOS>ATOM
      1 C2           0.0000     0.0000     0.0000 c3         1 7GR       0.153800
      2 C9          -2.3160    -0.0000     3.0480 c3         1 7GR      -0.098300
      3 C10         -2.3660    -1.4150     3.5620 c          1 7GR       0.972600
      4 C14         -3.7180     0.6090     3.0920 c3         1 7GR      -0.019400
      5 C19         -5.0700     2.6400     2.5550 c3         1 7GR       0.003900
      6 C31          3.8950    -1.0760    -1.0760 c3         1 7GR      -0.002200
      7 N1           1.4700     0.0000     0.0000 n7         1 7GR      -0.552300
      8 C5          -0.5020     0.0000     1.4210 c          1 7GR       0.565100
      9 O6           0.2860    -0.0000     2.3420 o          1 7GR      -0.659100
     10 N7          -1.8270    -0.0000     1.6670 ns         1 7GR      -0.179900
     11 O11         -2.0290    -2.3300     2.8490 o          1 7GR      -0.894800
     12 O12         -2.7860    -1.6610     4.8140 o          1 7GR      -0.894800
     13 C17         -3.6530     2.0720     2.6490 c3         1 7GR      -0.066700
     14 C23         -2.8480     2.8790     3.6700 c3         1 7GR       0.003900
     15 P28          2.0720    -1.1110    -1.1110 p5         1 7GR       0.466500
     16 O29          1.5560    -2.5860    -0.7280 o          1 7GR      -0.627000
     17 O30          1.5980    -0.7590    -2.4680 o          1 7GR      -0.627000
     18 C39          5.5810    -2.0230    -5.4910 c3         1 7GR       0.295700
     19 C42          6.1010    -3.1530    -6.3430 ca         1 7GR      -0.090300
     20 C43          5.2250    -3.8990    -7.1100 ca         1 7GR      -0.076500
     21 C45          5.7010    -4.9360    -7.8910 ca         1 7GR      -0.117000
     22 C47          7.0530    -5.2260    -7.9050 ca         1 7GR      -0.114000
     23 C49          7.9290    -4.4800    -7.1380 ca         1 7GR      -0.117000
     24 C51          7.4530    -3.4390    -6.3620 ca         1 7GR      -0.076500
     25 N34          4.4210    -2.0430    -2.0440 ns         1 7GR      -0.050900
     26 C36          4.7560    -1.6390    -3.2850 c          1 7GR       0.646100
     27 O37          4.6250    -0.4740    -3.6010 o          1 7GR      -0.676000
     28 O38          5.2390    -2.5290    -4.1740 os         1 7GR      -0.437900
     29 H1          -0.3610    -0.8850    -0.5110 h1         1 7GR       0.015200
     30 H2          -0.3610     0.8850    -0.5110 h1         1 7GR       0.015200
     31 H3          -1.6470     0.5850     3.6680 h1         1 7GR       0.052700
     32 H4          -4.3720     0.0590     2.4270 hc         1 7GR       0.023200
     33 H5          -4.1040     0.5550     4.1030 hc         1 7GR       0.023200
     34 H6          -5.5340     2.6180     3.5330 hc         1 7GR      -0.005133
     35 H7          -5.6540     2.0430     1.8650 hc         1 7GR      -0.005133
     36 H8          -5.0270     3.6630     2.1990 hc         1 7GR      -0.005133
     37 H9           4.2420    -1.3350    -0.0830 h1         1 7GR       0.030200
     38 H10          4.2420    -0.0830    -1.3330 h1         1 7GR       0.030200
     39 H11          1.9700     0.8470     0.1820 hn         1 7GR       0.258800
     40 H12         -2.4770    -0.0560     0.9070 hn         1 7GR       0.150500
     41 H14         -3.1730     2.1350     1.6800 hc         1 7GR       0.026700
     42 H15         -3.0980     3.9290     3.5780 hc         1 7GR      -0.005133
     43 H16         -3.0870     2.5370     4.6700 hc         1 7GR      -0.005133
     44 H17         -1.7890     2.7420     3.4850 hc         1 7GR      -0.005133
     45 H19          4.6990    -1.5980    -5.9550 h1         1 7GR       0.010200
     46 H20          6.3440    -1.2600    -5.3990 h1         1 7GR       0.010200
     47 H21          4.1660    -3.6720    -7.0980 ha         1 7GR       0.111000
     48 H22          5.0150    -5.5210    -8.4920 ha         1 7GR       0.093500
     49 H23          7.4260    -6.0400    -8.5150 ha         1 7GR       0.089000
     50 H24          8.9880    -4.7050    -7.1510 ha         1 7GR       0.093500
     51 H25          8.1380    -2.8550    -5.7610 ha         1 7GR       0.111000
     52 H26          4.5610    -2.9960    -1.7730 hn         1 7GR       0.154500
@<TRIPOS>BOND
     1     1     7 1   
     2     1     8 1   
     3     1    29 1   
     4     1    30 1   
     5     2     3 1   
     6     2     4 1   
     7     2    10 1   
     8     2    31 1   
     9     3    11 1   
    10     3    12 1   
    11     4    13 1   
    12     4    32 1   
    13     4    33 1   
    14     5    13 1   
    15     5    34 1   
    16     5    35 1   
    17     5    36 1   
    18     6    15 1   
    19     6    25 1   
    20     6    37 1   
    21     6    38 1   
    22     7    15 1   
    23     7    39 1   
    24     8     9 2   
    25     8    10 1   
    26    10    40 1   
    27    13    14 1   
    28    13    41 1   
    29    14    42 1   
    30    14    43 1   
    31    14    44 1   
    32    15    16 1   
    33    15    17 1   
    34    18    19 1   
    35    18    28 1   
    36    18    45 1   
    37    18    46 1   
    38    19    20 ar  
    39    19    24 ar  
    40    20    21 ar  
    41    20    47 1   
    42    21    22 ar  
    43    21    48 1   
    44    22    23 ar  
    45    22    49 1   
    46    23    24 ar  
    47    23    50 1   
    48    24    51 1   
    49    25    26 1   
    50    25    52 1   
    51    26    27 2   
    52    26    28 1   
@<TRIPOS>SUBSTRUCTURE
     1 7GR         1 TEMP              0 ****  ****    0 ROOT
