@<TRIPOS>MOLECULE
molecule
   52    52     1     0     0
SMALL
bcc


@<TRIPOS>ATOM
      1 C2           0.0000     0.0000     0.0000 c3         1 7GR       0.160800
      2 C9          -2.3160    -0.0000     3.0480 c3         1 7GR       0.008700
      3 C10         -2.3660    -1.4150     3.5620 c          1 7GR       0.882600
      4 C14         -3.7180     0.6090     3.0920 c3         1 7GR      -0.069400
      5 C19         -5.0700     2.6400     2.5550 c3         1 7GR      -0.085600
      6 C31          3.8950    -1.0760    -1.0760 c3         1 7GR      -0.065200
      7 N1           1.4700     0.0000     0.0000 n7         1 7GR      -0.909300
      8 C5          -0.5020     0.0000     1.4210 c          1 7GR       0.656100
      9 O6           0.2860    -0.0000     2.3420 o          1 7GR      -0.614100
     10 N7          -1.8270    -0.0000     1.6670 ns         1 7GR      -0.569900
     11 O11         -2.0290    -2.3300     2.8490 o          1 7GR      -0.844300
     12 O12         -2.7860    -1.6610     4.8140 o          1 7GR      -0.844300
     13 C17         -3.6530     2.0720     2.6490 c3         1 7GR      -0.083700
     14 C23         -2.8480     2.8790     3.6700 c3         1 7GR      -0.085600
     15 P28          2.0720    -1.1110    -1.1110 p5         1 7GR       1.114500
     16 O29          1.5560    -2.5860    -0.7280 o          1 7GR      -0.805500
     17 O30          1.5980    -0.7590    -2.4680 o          1 7GR      -0.805500
     18 C39          5.5810    -2.0230    -5.4910 c3         1 7GR       0.215700
     19 C42          6.1010    -3.1530    -6.3430 ca         1 7GR      -0.078300
     20 C43          5.2250    -3.8990    -7.1100 ca         1 7GR      -0.103500
     21 C45          5.7010    -4.9360    -7.8910 ca         1 7GR      -0.141500
     22 C47          7.0530    -5.2260    -7.9050 ca         1 7GR      -0.136000
     23 C49          7.9290    -4.4800    -7.1380 ca         1 7GR      -0.141500
     24 C51          7.4530    -3.4390    -6.3620 ca         1 7GR      -0.103500
     25 N34          4.4210    -2.0430    -2.0440 ns         1 7GR      -0.510900
     26 C36          4.7560    -1.6390    -3.2850 c          1 7GR       0.742100
     27 O37          4.6250    -0.4740    -3.6010 o          1 7GR      -0.619000
     28 O38          5.2390    -2.5290    -4.1740 os         1 7GR      -0.449900
     29 H1          -0.3610    -0.8850    -0.5110 h1         1 7GR       0.051200
     30 H2          -0.3610     0.8850    -0.5110 h1         1 7GR       0.051200
     31 H3          -1.6470     0.5850     3.6680 h1         1 7GR       0.067700
     32 H4          -4.3720     0.0590     2.4270 hc         1 7GR       0.047700
     33 H5          -4.1040     0.5550     4.1030 hc         1 7GR       0.047700
     34 H6          -5.5340     2.6180     3.5330 hc         1 7GR       0.022867
     35 H7          -5.6540     2.0430     1.8650 hc         1 7GR       0.022867
     36 H8          -5.0270     3.6630     2.1990 hc         1 7GR       0.022867
     37 H9           4.2420    -1.3350    -0.0830 h1         1 7GR       0.053200
     38 H10          4.2420    -0.0830    -1.3330 h1         1 7GR       0.053200
     39 H11          1.9700     0.8470     0.1820 hn         1 7GR       0.376800
     40 H12         -2.4770    -0.0560     0.9070 hn         1 7GR       0.290500
     41 H14         -3.1730     2.1350     1.6800 hc         1 7GR       0.050700
     42 H15         -3.0980     3.9290     3.5780 hc         1 7GR       0.022867
     43 H16         -3.0870     2.5370     4.6700 hc         1 7GR       0.022867
     44 H17         -1.7890     2.7420     3.4850 hc         1 7GR       0.022867
     45 H19          4.6990    -1.5980    -5.9550 h1         1 7GR       0.052200
     46 H20          6.3440    -1.2600    -5.3990 h1         1 7GR       0.052200
     47 H21          4.1660    -3.6720    -7.0980 ha         1 7GR       0.139000
     48 H22          5.0150    -5.5210    -8.4920 ha         1 7GR       0.120000
     49 H23          7.4260    -6.0400    -8.5150 ha         1 7GR       0.114000
     50 H24          8.9880    -4.7050    -7.1510 ha         1 7GR       0.120000
     51 H25          8.1380    -2.8550    -5.7610 ha         1 7GR       0.139000
     52 H26          4.5610    -2.9960    -1.7730 hn         1 7GR       0.322500
@<TRIPOS>BOND
     1    23    24 ar
     2    23    22 ar
     3    24    19 ar
     4    22    21 ar
     5    19    18 1
     6    19    20 ar
     7    21    20 ar
     8    18    28 1
     9    28    26 1
    10    26    27 2
    11    26    25 1
    12    25     6 1
    13     6    15 1
    14    17    15 1
    15    16    15 1
    16    15     7 1
    17    11     3 1
    18    12     3 1
    19     3     2 1
    20     7     1 1
    21     2    10 1
    22     2     4 1
    23    10     8 1
    24     8     1 1
    25     8     9 2
    26     4    13 1
    27    13     5 1
    28    13    14 1
    29     1    29 1
    30     1    30 1
    31     2    31 1
    32     4    32 1
    33     4    33 1
    34     5    34 1
    35     5    35 1
    36     5    36 1
    37     6    37 1
    38     6    38 1
    39     7    39 1
    40    10    40 1
    41    13    41 1
    42    14    42 1
    43    14    43 1
    44    14    44 1
    45    18    45 1
    46    18    46 1
    47    20    47 1
    48    21    48 1
    49    22    49 1
    50    23    50 1
    51    24    51 1
    52    25    52 1
@<TRIPOS>SUBSTRUCTURE
     1 7GR         1 TEMP              0 ****  ****    0 ROOT
