@<TRIPOS>MOLECULE
molecule
   73    79     1     0     0
SMALL
bcc


@<TRIPOS>ATOM
      1 C4           0.0000     0.0000     0.0000 ca         1 7GS      -0.135000
      2 C5           1.3870     0.0000     0.0000 ca         1 7GS       0.071100
      3 C7           2.0850     0.0000     1.2030 ca         1 7GS       0.108900
      4 C10          0.0030    -0.0060     2.4010 cp         1 7GS      -0.025000
      5 C13         -2.3470    -1.0920     5.1160 ca         1 7GS      -0.046000
      6 C15         -2.7130     0.1680     7.3460 cc         1 7GS      -0.098900
      7 C20         -0.5120     1.0020     4.5970 ca         1 7GS      -0.104000
      8 C21         -3.7200    -0.6480     8.0370 cc         1 7GS       0.460300
      9 C24         -6.0010    -1.5780    10.7590 c3         1 7GS       0.167300
     10 C26         -6.4860    -3.8490     9.7620 c3         1 7GS       0.101000
     11 C28         -5.1350    -2.2250     8.4720 cd         1 7GS       0.327600
     12 C1          -2.7040     1.4310     1.4190 c3         1 7GS      -0.087100
     13 C3          -0.6920    -0.0010     1.1930 ca         1 7GS      -0.064300
     14 O6           2.0670     0.0020    -1.1780 oh         1 7GS      -0.509100
     15 F8           3.4350     0.0010     1.2000 f          1 7GS      -0.131900
     16 C9           1.3970    -0.0010     2.4010 ca         1 7GS      -0.143000
     17 C11         -0.7390    -0.0070     3.6850 cp         1 7GS      -0.005000
     18 C12         -1.6490    -1.0460     3.9550 ca         1 7GS      -0.160000
     19 C14         -2.1690    -0.0860     6.0830 ca         1 7GS      -0.143000
     20 N16         -2.1490     1.3040     7.8110 na         1 7GS       0.012800
     21 N17         -1.2340     1.7970     6.8740 nc         1 7GS      -0.261400
     22 C19         -1.2170     1.0020     5.8180 ca         1 7GS      -0.034000
     23 N22         -4.2580    -0.3850     9.2690 na         1 7GS      -0.283900
     24 C23         -5.1430    -1.3850     9.5330 cc         1 7GS      -0.238900
     25 N25         -6.9710    -2.6440    10.4510 n          1 7GS      -0.471800
     26 C27         -5.9930    -3.4630     8.3620 c3         1 7GS      -0.112700
     27 N29         -4.2670    -1.7570     7.5760 nd         1 7GS      -0.656000
     28 C31         -8.2690    -2.5180    10.7920 c          1 7GS       0.591600
     29 O32         -9.0780    -3.3470    10.4230 o          1 7GS      -0.605100
     30 C33         -8.7080    -1.3710    11.6140 ca         1 7GS       0.202500
     31 C34        -10.0690    -1.1500    11.8330 ca         1 7GS       0.397900
     32 N35        -10.4610    -0.1250    12.5670 nb         1 7GS      -0.711000
     33 C36         -9.5610     0.6940    13.0970 ca         1 7GS       0.522900
     34 C37         -8.1980     0.4720    12.8790 ca         1 7GS       0.262900
     35 N38         -7.8060    -0.5510    12.1510 nb         1 7GS      -0.635000
     36 N39         -9.9720     1.7680    13.8670 nh         1 7GS      -0.691300
     37 C40         -9.3500     1.7310    15.1970 c3         1 7GS       0.170300
     38 C41         -9.7110     3.0050    15.9660 c3         1 7GS      -0.082900
     39 C42        -11.2340     3.1020    16.0960 c3         1 7GS      -0.085400
     40 C43        -11.8600     3.0890    14.6990 c3         1 7GS      -0.082900
     41 C44        -11.4360     1.8130    13.9670 c3         1 7GS       0.170300
     42 H1          -0.5410     0.0020    -0.9390 ha         1 7GS       0.148000
     43 H2          -3.0420    -1.9030     5.2990 ha         1 7GS       0.157000
     44 H3           0.3000     1.7010     4.4400 ha         1 7GS       0.147000
     45 H4          -5.3830    -1.8740    11.5970 h1         1 7GS       0.086200
     46 H5          -6.5260    -0.6580    10.9870 h1         1 7GS       0.086200
     47 H6          -5.6450    -4.2430    10.3200 h1         1 7GS       0.072200
     48 H7          -7.3180    -4.5330     9.6510 h1         1 7GS       0.072200
     49 H8          -3.4850     1.4210     2.1700 hc         1 7GS       0.039033
     50 H9          -1.8790     2.0430     1.7640 hc         1 7GS       0.039033
     51 H10         -3.0960     1.8400     0.4960 hc         1 7GS       0.039033
     52 H11         -2.5600    -0.3560     0.2340 hc         1 7GS       0.054200
     53 H12         -2.5650    -0.6390     1.9800 hc         1 7GS       0.054200
     54 H13          2.1180    -0.8790    -1.5120 ho         1 7GS       0.420000
     55 H14          1.9400    -0.0030     3.3380 ha         1 7GS       0.154000
     56 H15         -1.7910    -1.8290     3.2200 ha         1 7GS       0.137000
     57 H16         -2.3550     1.7300     8.6930 hn         1 7GS       0.324700
     58 H17         -3.9220     0.2910     9.9260 hn         1 7GS       0.295700
     59 H18         -6.8560    -3.2250     7.7510 hc         1 7GS       0.072200
     60 H19         -5.3770    -4.2700     7.9840 hc         1 7GS       0.072200
     61 H21        -10.8030    -1.8190    11.3990 h4         1 7GS       0.060100
     62 H22         -7.4640     1.1390    13.3140 h4         1 7GS       0.038100
     63 H23         -8.2740     1.6690    15.0890 h1         1 7GS       0.051700
     64 H24         -9.7140     0.8680    15.7410 h1         1 7GS       0.051700
     65 H25         -9.3390     3.8680    15.4280 hc         1 7GS       0.053950
     66 H26         -9.2660     2.9680    16.9530 hc         1 7GS       0.053950
     67 H27        -11.4950     4.0240    16.6000 hc         1 7GS       0.046200
     68 H28        -11.6020     2.2560    16.6640 hc         1 7GS       0.046200
     69 H29        -11.5200     3.9540    14.1430 hc         1 7GS       0.053950
     70 H30        -12.9400     3.1120    14.7880 hc         1 7GS       0.053950
     71 H31        -11.7860     0.9490    14.5190 h1         1 7GS       0.051700
     72 H32        -11.8650     1.8110    12.9720 h1         1 7GS       0.051700
     73 C2          -2.1990     0.0060     1.1900 c3         1 7GS      -0.046100
@<TRIPOS>BOND
     1    15     3 1
     2    14     2 1
     3    38    37 1
     4    38    39 1
     5     3     2 ar
     6     3    16 ar
     7     2     1 ar
     8    37    36 1
     9    16     4 ar
    10     1    13 ar
    11    39    40 1
    12    32    31 ar
    13    32    33 ar
    14     4    13 ar
    15     4    17 1
    16    13    73 1
    17    18     5 ar
    18    18    17 ar
    19    31    30 ar
    20    36    33 1
    21    36    41 1
    22    40    41 1
    23     5    19 ar
    24    17     7 ar
    25    33    34 ar
    26     9    24 1
    27     9    25 1
    28    73    12 1
    29    23    24 1
    30    23     8 1
    31    24    11 2
    32    19    22 ar
    33    19     6 2
    34    25    10 1
    35    25    28 1
    36     7    22 ar
    37    30    28 1
    38    30    35 ar
    39    10    26 1
    40    28    29 2
    41     8     6 1
    42     8    27 2
    43    22    21 2
    44    34    35 ar
    45     6    20 1
    46    11    27 1
    47    11    26 1
    48    21    20 1
    49     1    42 1
    50     5    43 1
    51     7    44 1
    52     9    45 1
    53     9    46 1
    54    10    47 1
    55    10    48 1
    56    12    49 1
    57    12    50 1
    58    12    51 1
    59    73    52 1
    60    73    53 1
    61    14    54 1
    62    16    55 1
    63    18    56 1
    64    20    57 1
    65    23    58 1
    66    26    59 1
    67    26    60 1
    68    31    61 1
    69    34    62 1
    70    37    63 1
    71    37    64 1
    72    38    65 1
    73    38    66 1
    74    39    67 1
    75    39    68 1
    76    40    69 1
    77    40    70 1
    78    41    71 1
    79    41    72 1
@<TRIPOS>SUBSTRUCTURE
     1 7GS         1 TEMP              0 ****  ****    0 ROOT
