@<TRIPOS>MOLECULE
7GV
   51    54     1     0     0
SMALL
bcc


@<TRIPOS>ATOM
      1 C4           0.0000     0.0000     0.0000 c3         1 7GV      -0.083000
      2 C7           1.6590     1.1680     2.1340 c3         1 7GV       0.114500
      3 C6           2.1770     0.0000     1.2880 c3         1 7GV       0.053000
      4 C13          0.4910     0.2660     7.4150 cc         1 7GV      -0.280100
      5 N5           1.4700     0.0000     0.0000 n          1 7GV      -0.155800
      6 C19          2.1560    -0.0010    -1.1600 c          1 7GV       0.630100
      7 C2           0.1370     1.0720     2.2520 c3         1 7GV      -0.060700
      8 C3          -0.4920     1.1680     0.8610 c3         1 7GV      -0.025400
      9 N8           2.2600     1.1070     3.4720 nh         1 7GV      -0.507300
     10 C10          1.5790     1.9230     4.3590 ca         1 7GV       0.589200
     11 C11          1.1030     1.4190     5.5780 ca         1 7GV      -0.331400
     12 C12          1.1330     0.1180     6.2450 cd         1 7GV      -0.110200
     13 N14          0.0550     1.5590     7.5460 na         1 7GV       0.269900
     14 C15          0.4160     2.2890     6.4460 ca         1 7GV       0.255800
     15 N16          0.2470     3.5560     6.0740 nb         1 7GV      -0.634000
     16 C17          0.7110     3.9860     4.9200 ca         1 7GV       0.647900
     17 N18          1.3610     3.2040     4.0770 nb         1 7GV      -0.696000
     18 O20          3.3580    -0.1790    -1.1550 o          1 7GV      -0.705100
     19 N21          1.5090     0.1970    -2.3260 n          1 7GV      -0.190800
     20 C22          0.0510     0.2940    -2.4920 c3         1 7GV       0.048500
     21 C23         -0.2260     0.4950    -3.9970 c3         1 7GV      -0.035900
     22 C24          1.0560    -0.0670    -4.6650 c3         1 7GV      -0.035900
     23 C25          2.1460     0.3580    -3.6450 c3         1 7GV       0.048500
     24 H1          -0.3620     0.1190    -1.0140 h1         1 7GV       0.067700
     25 H2          -0.3620    -0.9330     0.4140 h1         1 7GV       0.067700
     26 H3           1.9240     2.1030     1.6560 h1         1 7GV       0.038700
     27 H4           3.2400     0.1190     1.1170 h1         1 7GV       0.044700
     28 H5           1.9880    -0.9330     1.8040 h1         1 7GV       0.044700
     29 H6           3.8400     2.2520     2.7070 h1         1 7GV       0.010700
     30 H7           4.0090     1.7870     4.4060 h1         1 7GV       0.010700
     31 H8           4.2610     0.5870     3.1310 h1         1 7GV       0.010700
     32 H13         -0.2280     1.8860     2.8670 hc         1 7GV       0.040700
     33 H14         -0.2030     2.1040     0.3980 hc         1 7GV       0.020200
     34 H15         -1.5710     1.1200     0.9490 hc         1 7GV       0.020200
     35 H16          1.5860    -0.7910     5.8670 ha         1 7GV       0.139000
     36 H17         -0.4500     1.9180     8.3320 hn         1 7GV       0.120700
     37 H18          0.5540     5.0230     4.6520 h5         1 7GV      -0.001900
     38 H19         -0.3260     1.1420    -1.9330 h1         1 7GV       0.028700
     39 H20         -0.4200    -0.6190    -2.1500 h1         1 7GV       0.028700
     40 H21         -0.3460     1.5470    -4.2260 hc         1 7GV       0.024450
     41 H22         -1.0960    -0.0730    -4.3030 hc         1 7GV       0.024450
     42 H23          1.2250     0.4000    -5.6280 hc         1 7GV       0.024450
     43 H24          1.0060    -1.1450    -4.7500 hc         1 7GV       0.024450
     44 H25          2.4260     1.3920    -3.8030 h1         1 7GV       0.028700
     45 H26          3.0100    -0.2900    -3.7270 h1         1 7GV       0.028700
     46 C9           3.6860     1.4560     3.4260 c3         1 7GV       0.181100
     47 C1          -0.2420    -0.2670     2.8910 c3         1 7GV      -0.026100
     48 H9           0.3420    -0.5180     8.1470 h4         1 7GV       0.145000
     49 H10          0.6580    -0.8020     3.1680 hc         1 7GV       0.015700
     50 H11         -0.8420    -0.0880     3.7760 hc         1 7GV       0.015700
     51 H12         -0.8100    -0.8570     2.1830 hc         1 7GV       0.015700
@<TRIPOS>BOND
     1     1     5 1   
     2     1     8 1   
     3     1    24 1   
     4     1    25 1   
     5     2     3 1   
     6     2     7 1   
     7     2     9 1   
     8     2    26 1   
     9     3     5 1   
    10     3    27 1   
    11     3    28 1   
    12     4    12 2   
    13     4    13 1   
    14     4    48 1   
    15     5     6 1   
    16     6    18 2   
    17     6    19 1   
    18     7     8 1   
    19     7    32 1   
    20     7    47 1   
    21     8    33 1   
    22     8    34 1   
    23     9    10 1   
    24     9    46 1   
    25    10    11 ar  
    26    10    17 ar  
    27    11    12 1   
    28    11    14 ar  
    29    12    35 1   
    30    13    14 1   
    31    13    36 1   
    32    14    15 ar  
    33    15    16 ar  
    34    16    17 ar  
    35    16    37 1   
    36    19    20 1   
    37    19    23 1   
    38    20    21 1   
    39    20    38 1   
    40    20    39 1   
    41    21    22 1   
    42    21    40 1   
    43    21    41 1   
    44    22    23 1   
    45    22    42 1   
    46    22    43 1   
    47    23    44 1   
    48    23    45 1   
    49    29    46 1   
    50    30    46 1   
    51    31    46 1   
    52    47    49 1   
    53    47    50 1   
    54    47    51 1   
@<TRIPOS>SUBSTRUCTURE
     1 7GV         1 TEMP              0 ****  ****    0 ROOT
