@<TRIPOS>MOLECULE
molecule
   51    54     1     0     0
SMALL
bcc


@<TRIPOS>ATOM
      1 C4           0.0000     0.0000     0.0000 c3         1 7GV       0.029000
      2 C7           1.6590     1.1680     2.1340 c3         1 7GV       0.162500
      3 C6           2.1770     0.0000     1.2880 c3         1 7GV       0.130000
      4 C13          0.4910     0.2660     7.4150 cc         1 7GV      -0.110100
      5 N5           1.4700     0.0000     0.0000 n          1 7GV      -0.500800
      6 C19          2.1560    -0.0010    -1.1600 c          1 7GV       0.810100
      7 C2           0.1370     1.0720     2.2520 c3         1 7GV      -0.073700
      8 C3          -0.4920     1.1680     0.8610 c3         1 7GV      -0.091400
      9 N8           2.2600     1.1070     3.4720 nh         1 7GV      -0.717300
     10 C10          1.5790     1.9230     4.3590 ca         1 7GV       0.691200
     11 C11          1.1030     1.4190     5.5780 ca         1 7GV      -0.325400
     12 C12          1.1330     0.1180     6.2450 cd         1 7GV      -0.157200
     13 N14          0.0550     1.5590     7.5460 na         1 7GV      -0.276100
     14 C15          0.4160     2.2890     6.4460 ca         1 7GV       0.491800
     15 N16          0.2470     3.5560     6.0740 nb         1 7GV      -0.767000
     16 C17          0.7110     3.9860     4.9200 ca         1 7GV       0.705900
     17 N18          1.3610     3.2040     4.0770 nb         1 7GV      -0.803000
     18 O20          3.3580    -0.1790    -1.1550 o          1 7GV      -0.657100
     19 N21          1.5090     0.1970    -2.3260 n          1 7GV      -0.516800
     20 C22          0.0510     0.2940    -2.4920 c3         1 7GV       0.106500
     21 C23         -0.2260     0.4950    -3.9970 c3         1 7GV      -0.100400
     22 C24          1.0560    -0.0670    -4.6650 c3         1 7GV      -0.100400
     23 C25          2.1460     0.3580    -3.6450 c3         1 7GV       0.106500
     24 H1          -0.3620     0.1190    -1.0140 h1         1 7GV       0.075200
     25 H2          -0.3620    -0.9330     0.4140 h1         1 7GV       0.075200
     26 H3           1.9240     2.1030     1.6560 h1         1 7GV       0.057700
     27 H4           3.2400     0.1190     1.1170 h1         1 7GV       0.068700
     28 H5           1.9880    -0.9330     1.8040 h1         1 7GV       0.068700
     29 H6           3.8400     2.2520     2.7070 h1         1 7GV       0.044367
     30 H7           4.0090     1.7870     4.4060 h1         1 7GV       0.044367
     31 H8           4.2610     0.5870     3.1310 h1         1 7GV       0.044367
     32 H13         -0.2280     1.8860     2.8670 hc         1 7GV       0.061700
     33 H14         -0.2030     2.1040     0.3980 hc         1 7GV       0.049200
     34 H15         -1.5710     1.1200     0.9490 hc         1 7GV       0.049200
     35 H16          1.5860    -0.7910     5.8670 ha         1 7GV       0.167000
     36 H17         -0.4500     1.9180     8.3320 hn         1 7GV       0.306700
     37 H18          0.5540     5.0230     4.6520 h5         1 7GV       0.059100
     38 H19         -0.3260     1.1420    -1.9330 h1         1 7GV       0.053200
     39 H20         -0.4200    -0.6190    -2.1500 h1         1 7GV       0.053200
     40 H21         -0.3460     1.5470    -4.2260 hc         1 7GV       0.055700
     41 H22         -1.0960    -0.0730    -4.3030 hc         1 7GV       0.055700
     42 H23          1.2250     0.4000    -5.6280 hc         1 7GV       0.055700
     43 H24          1.0060    -1.1450    -4.7500 hc         1 7GV       0.055700
     44 H25          2.4260     1.3920    -3.8030 h1         1 7GV       0.053200
     45 H26          3.0100    -0.2900    -3.7270 h1         1 7GV       0.053200
     46 C9           3.6860     1.4560     3.4260 c3         1 7GV       0.159100
     47 C1          -0.2420    -0.2670     2.8910 c3         1 7GV      -0.094100
     48 H9           0.3420    -0.5180     8.1470 h4         1 7GV       0.173000
     49 H10          0.6580    -0.8020     3.1680 hc         1 7GV       0.040033
     50 H11         -0.8420    -0.0880     3.7760 hc         1 7GV       0.040033
     51 H12         -0.8100    -0.8570     2.1830 hc         1 7GV       0.040033
@<TRIPOS>BOND
     1    21    22 1   
     2    21    20 1   
     3    22    23 1   
     4    23    19 1   
     5    20    19 1   
     6     1     8 1   
     7     1     5 1   
     8    19     6 1   
     9     8     7 1   
    10     6     5 1   
    11     6    18 2   
    12    47     7 1   
    13     5     3 1   
    14     7     2 1   
    15     3     2 1   
    16     2     9 1   
    17     9    46 1   
    18     9    10 1   
    19    12     4 2   
    20    12    11 1   
    21     4    13 1   
    22    10    11 ar  
    23    10    17 ar  
    24    11    14 ar  
    25    17    16 ar  
    26    13    14 1   
    27    14    15 ar  
    28    16    15 ar  
    29     1    24 1   
    30     1    25 1   
    31     2    26 1   
    32     3    27 1   
    33     3    28 1   
    34    46    29 1   
    35    46    30 1   
    36    46    31 1   
    37     4    48 1   
    38    47    49 1   
    39    47    50 1   
    40    47    51 1   
    41     7    32 1   
    42     8    33 1   
    43     8    34 1   
    44    12    35 1   
    45    13    36 1   
    46    16    37 1   
    47    20    38 1   
    48    20    39 1   
    49    21    40 1   
    50    21    41 1   
    51    22    42 1   
    52    22    43 1   
    53    23    44 1   
    54    23    45 1   
@<TRIPOS>SUBSTRUCTURE
     1 7GV         1 TEMP              0 ****  ****    0 ROOT
