@<TRIPOS>MOLECULE
molecule
   24    24     1     0     0
SMALL
bcc


@<TRIPOS>ATOM
      1 O1           0.0000     0.0000     0.0000 oh         1 7GW      -0.607800
      2 C1           1.4290     0.0000     0.0000 c3         1 7GW       0.150400
      3 C2           1.9400     0.0000     1.4430 c3         1 7GW       0.136100
      4 O2           1.6930     1.2770     2.0690 os         1 7GW      -0.376600
      5 C3           2.6070     1.3860     3.1730 c3         1 7GW       0.143100
      6 C4           1.9390     0.8810     4.4530 c3         1 7GW       0.313900
      7 O3           1.6180    -0.5050     4.3080 oh         1 7GW      -0.619800
      8 O4           2.8330     1.0480     5.5560 oh         1 7GW      -0.619800
      9 C5           3.8330     0.5130     2.8410 c3         1 7GW       0.110100
     10 O5           5.0060     1.3210     2.7290 oh         1 7GW      -0.580800
     11 C6           3.4830    -0.1280     1.4760 c3         1 7GW       0.097100
     12 O6           4.0780     0.6050     0.4020 oh         1 7GW      -0.573800
     13 H1          -0.3140    -0.0750    -0.8860 ho         1 7GW       0.401000
     14 H2           1.7900    -0.8850    -0.5110 h1         1 7GW       0.037700
     15 H3           1.7900     0.8840    -0.5110 h1         1 7GW       0.037700
     16 H4           1.4820    -0.7970     2.0150 h1         1 7GW       0.081700
     17 H5           2.9140     2.4180     3.2950 h1         1 7GW       0.108700
     18 H6           1.0290    -0.7650     4.9970 ho         1 7GW       0.406500
     19 H7           2.3560     1.3720     6.3010 ho         1 7GW       0.406500
     20 H8           3.9640    -0.2540     3.5940 h1         1 7GW       0.068700
     21 H9           5.7130     0.9150     3.2030 ho         1 7GW       0.401000
     22 H10          3.7820    -1.1690     1.4540 h1         1 7GW       0.044700
     23 H11          4.7900     0.1050     0.0380 ho         1 7GW       0.399000
     24 H12          1.0320     1.4450     4.6350 h2         1 7GW       0.036700
@<TRIPOS>BOND
     1     8     6 1   
     2     7     6 1   
     3     6     5 1   
     4     5     4 1   
     5     5     9 1   
     6     4     3 1   
     7     3    11 1   
     8     3     2 1   
     9    11     9 1   
    10    11    12 1   
    11     9    10 1   
    12     1     2 1   
    13     1    13 1   
    14     2    14 1   
    15     2    15 1   
    16     3    16 1   
    17     5    17 1   
    18     7    18 1   
    19     8    19 1   
    20     9    20 1   
    21    10    21 1   
    22    11    22 1   
    23    12    23 1   
    24     6    24 1   
@<TRIPOS>SUBSTRUCTURE
     1 7GW         1 TEMP              0 ****  ****    0 ROOT
