@<TRIPOS>MOLECULE
molecule
   48    51     1     0     0
SMALL
bcc


@<TRIPOS>ATOM
      1 C4           0.0000     0.0000     0.0000 ca         1 7GX      -0.154000
      2 C7           1.3720     0.0100     2.4130 ca         1 7GX      -0.098000
      3 C6          -0.0060     0.0090     2.4070 ca         1 7GX      -0.158000
      4 C9           3.5570     0.0000     1.2120 cp         1 7GX       0.002000
      5 C13          5.6350    -1.0010     1.8800 ca         1 7GX      -0.081200
      6 C21         11.2470     0.8630     0.8410 ca         1 7GX      -0.072700
      7 C8           2.0750     0.0000     1.2090 cp         1 7GX      -0.058000
      8 C26         12.4420     0.2690     0.4560 ca         1 7GX       0.395200
      9 C1           2.4550    -1.4400    -1.7070 c3         1 7GX      -0.086100
     10 C3           1.3780     0.0000     0.0000 ca         1 7GX      -0.048300
     11 C5          -0.6960     0.0040     1.2020 ca         1 7GX       0.112100
     12 C10          4.2540     1.0210     0.5540 ca         1 7GX      -0.144000
     13 C11          5.6180     1.0370     0.5540 ca         1 7GX      -0.056000
     14 C12          6.3230     0.0320     1.2130 ca         1 7GX      -0.178900
     15 C14          4.2450    -1.0090     1.8740 ca         1 7GX      -0.132000
     16 N15          6.5980    -1.8150     2.4160 na         1 7GX       0.033900
     17 N16          7.7760    -1.3820     2.1440 nc         1 7GX      -0.501100
     18 C17          7.7420    -0.2800     1.4270 cd         1 7GX       0.281900
     19 O19          8.7240     1.4990     0.2780 o          1 7GX      -0.592100
     20 N20         10.1510     0.0770     1.2140 ns         1 7GX      -0.464100
     21 C22         11.1570     2.2530     0.8560 ca         1 7GX      -0.092000
     22 C23         12.2700     2.9880     0.4840 ca         1 7GX      -0.234300
     23 C24         13.4250     2.3240     0.1130 ca         1 7GX       0.408600
     24 N25         13.4780     1.0060     0.1090 nb         1 7GX      -0.676000
     25 C27         14.6400     3.1180    -0.2930 c3         1 7GX      -0.139400
     26 O28         -2.0550     0.0050     1.1980 oh         1 7GX      -0.522100
     27 H1          -0.5410    -0.0020    -0.9390 ha         1 7GX       0.144000
     28 H2           1.9100     0.0140     3.3540 ha         1 7GX       0.138000
     29 H3          -0.5510     0.0150     3.3430 ha         1 7GX       0.142000
     30 H4          12.5230    -0.8110     0.4410 h4         1 7GX       0.022100
     31 H5           3.4530    -1.4840    -2.1250 hc         1 7GX       0.038033
     32 H6           1.7360    -1.7530    -2.4560 hc         1 7GX       0.038033
     33 H7           2.3930    -2.0990    -0.8500 hc         1 7GX       0.038033
     34 H8           1.5260     0.4630    -2.0730 hc         1 7GX       0.055200
     35 H9           3.0550     0.5560    -1.1880 hc         1 7GX       0.055200
     36 H10          3.7070     1.8130     0.0570 ha         1 7GX       0.144000
     37 H11          6.1520     1.8300     0.0430 ha         1 7GX       0.160000
     38 H12          3.7070    -1.8590     2.2740 ha         1 7GX       0.138000
     39 H13          6.4090    -2.6390     2.9510 hn         1 7GX       0.337700
     40 H14         10.2970    -0.7850     1.7010 hn         1 7GX       0.338500
     41 H15         10.2390     2.7460     1.1510 ha         1 7GX       0.165000
     42 H16         12.2360     4.0710     0.4840 ha         1 7GX       0.142000
     43 H17         15.4400     2.4400    -0.5650 hc         1 7GX       0.051367
     44 H18         14.3950     3.7450    -1.1420 hc         1 7GX       0.051367
     45 H19         14.9590     3.7390     0.5350 hc         1 7GX       0.051367
     46 H20         -2.3690     0.8930     1.1540 ho         1 7GX       0.420000
     47 C18          8.8990     0.4900     0.9350 c          1 7GX       0.632800
     48 C2           2.1330    -0.0000    -1.3040 c3         1 7GX      -0.050100
@<TRIPOS>BOND
     1    26    11 1   
     2     3    11 ar  
     3     3     2 ar  
     4    11     1 ar  
     5     2     7 ar  
     6     1    10 ar  
     7    12    13 ar  
     8    12     4 ar  
     9     7    10 ar  
    10     7     4 1   
    11    10    48 1   
    12    13    14 ar  
    13     4    15 ar  
    14    48     9 1   
    15    19    47 2   
    16    14     5 ar  
    17    14    18 1   
    18    15     5 ar  
    19     8    24 ar  
    20     8     6 ar  
    21    47    18 1   
    22    47    20 1   
    23    24    23 ar  
    24     5    16 1   
    25    18    17 2   
    26    20     6 1   
    27     6    21 ar  
    28    23    25 1   
    29    23    22 ar  
    30    16    17 1   
    31    21    22 ar  
    32     1    27 1   
    33     2    28 1   
    34     3    29 1   
    35     8    30 1   
    36     9    31 1   
    37     9    32 1   
    38     9    33 1   
    39    48    34 1   
    40    48    35 1   
    41    12    36 1   
    42    13    37 1   
    43    15    38 1   
    44    16    39 1   
    45    20    40 1   
    46    21    41 1   
    47    22    42 1   
    48    25    43 1   
    49    25    44 1   
    50    25    45 1   
    51    26    46 1   
@<TRIPOS>SUBSTRUCTURE
     1 7GX         1 TEMP              0 ****  ****    0 ROOT
