@<TRIPOS>MOLECULE
7GX
   48    51     1     0     0
SMALL
bcc


@<TRIPOS>ATOM
      1 C4           0.0000     0.0000     0.0000 ca         1 7GX      -0.139000
      2 C7           1.3720     0.0100     2.4130 ca         1 7GX      -0.067000
      3 C6          -0.0060     0.0090     2.4070 ca         1 7GX      -0.144000
      4 C9           3.5570     0.0000     1.2120 cp         1 7GX       0.006000
      5 C13          5.6350    -1.0010     1.8800 ca         1 7GX      -0.271200
      6 C21         11.2470     0.8630     0.8410 ca         1 7GX      -0.215700
      7 C8           2.0750     0.0000     1.2090 cp         1 7GX      -0.059000
      8 C26         12.4420     0.2690     0.4560 ca         1 7GX       0.377200
      9 C1           2.4550    -1.4400    -1.7070 c3         1 7GX       0.009900
     10 C3           1.3780     0.0000     0.0000 ca         1 7GX      -0.047300
     11 C5          -0.6960     0.0040     1.2020 ca         1 7GX       0.130100
     12 C10          4.2540     1.0210     0.5540 ca         1 7GX      -0.122000
     13 C11          5.6180     1.0370     0.5540 ca         1 7GX      -0.022000
     14 C12          6.3230     0.0320     1.2130 ca         1 7GX      -0.165900
     15 C14          4.2450    -1.0090     1.8740 ca         1 7GX      -0.092000
     16 N15          6.5980    -1.8150     2.4160 na         1 7GX       0.544900
     17 N16          7.7760    -1.3820     2.1440 nc         1 7GX      -0.626100
     18 C17          7.7420    -0.2800     1.4270 cd         1 7GX       0.263900
     19 O19          8.7240     1.4990     0.2780 o          1 7GX      -0.644100
     20 N20         10.1510     0.0770     1.2140 ns         1 7GX      -0.014100
     21 C22         11.1570     2.2530     0.8560 ca         1 7GX      -0.068000
     22 C23         12.2700     2.9880     0.4840 ca         1 7GX      -0.200300
     23 C24         13.4250     2.3240     0.1130 ca         1 7GX       0.358600
     24 N25         13.4780     1.0060     0.1090 nb         1 7GX      -0.562000
     25 C27         14.6400     3.1180    -0.2930 c3         1 7GX      -0.038400
     26 O28         -2.0550     0.0050     1.1980 oh         1 7GX      -0.501100
     27 H1          -0.5410    -0.0020    -0.9390 ha         1 7GX       0.119000
     28 H2           1.9100     0.0140     3.3540 ha         1 7GX       0.108000
     29 H3          -0.5510     0.0150     3.3430 ha         1 7GX       0.115000
     30 H4          12.5230    -0.8110     0.4410 h4         1 7GX      -0.019900
     31 H5           3.4530    -1.4840    -2.1250 hc         1 7GX       0.004367
     32 H6           1.7360    -1.7530    -2.4560 hc         1 7GX       0.004367
     33 H7           2.3930    -2.0990    -0.8500 hc         1 7GX       0.004367
     34 H8           1.5260     0.4630    -2.0730 hc         1 7GX       0.029700
     35 H9           3.0550     0.5560    -1.1880 hc         1 7GX       0.029700
     36 H10          3.7070     1.8130     0.0570 ha         1 7GX       0.119000
     37 H11          6.1520     1.8300     0.0430 ha         1 7GX       0.130000
     38 H12          3.7070    -1.8590     2.2740 ha         1 7GX       0.111000
     39 H13          6.4090    -2.6390     2.9510 hn         1 7GX       0.141700
     40 H14         10.2970    -0.7850     1.7010 hn         1 7GX       0.180500
     41 H15         10.2390     2.7460     1.1510 ha         1 7GX       0.142000
     42 H16         12.2360     4.0710     0.4840 ha         1 7GX       0.116000
     43 H17         15.4400     2.4400    -0.5650 hc         1 7GX       0.012700
     44 H18         14.3950     3.7450    -1.1420 hc         1 7GX       0.012700
     45 H19         14.9590     3.7390     0.5350 hc         1 7GX       0.012700
     46 H20         -2.3690     0.8930     1.1540 ho         1 7GX       0.403000
     47 C18          8.8990     0.4900     0.9350 c          1 7GX       0.537800
     48 C2           2.1330    -0.0000    -1.3040 c3         1 7GX      -0.001100
@<TRIPOS>BOND
     1     1    10 ar  
     2     1    11 ar  
     3     1    27 1   
     4     2     3 ar  
     5     2     7 ar  
     6     2    28 1   
     7     3    11 ar  
     8     3    29 1   
     9     4     7 1   
    10     4    12 ar  
    11     4    15 ar  
    12     5    14 ar  
    13     5    15 ar  
    14     5    16 1   
    15     6     8 ar  
    16     6    20 1   
    17     6    21 ar  
    18     7    10 ar  
    19     8    24 ar  
    20     8    30 1   
    21     9    31 1   
    22     9    32 1   
    23     9    33 1   
    24     9    48 1   
    25    10    48 1   
    26    11    26 1   
    27    12    13 ar  
    28    12    36 1   
    29    13    14 ar  
    30    13    37 1   
    31    14    18 1   
    32    15    38 1   
    33    16    17 1   
    34    16    39 1   
    35    17    18 2   
    36    18    47 1   
    37    19    47 2   
    38    20    40 1   
    39    20    47 1   
    40    21    22 ar  
    41    21    41 1   
    42    22    23 ar  
    43    22    42 1   
    44    23    24 ar  
    45    23    25 1   
    46    25    43 1   
    47    25    44 1   
    48    25    45 1   
    49    26    46 1   
    50    34    48 1   
    51    35    48 1   
@<TRIPOS>SUBSTRUCTURE
     1 7GX         1 TEMP              0 ****  ****    0 ROOT
