@<TRIPOS>MOLECULE
molecule
   37    39     1     0     0
SMALL
bcc


@<TRIPOS>ATOM
      1 C4           0.0000     0.0000     0.0000 ca         1 7GY      -0.150000
      2 C7           1.3720     0.0010     2.4130 ca         1 7GY      -0.092000
      3 C6          -0.0060     0.0060     2.4060 ca         1 7GY      -0.154000
      4 C9           3.5580    -0.0060     1.2120 cp         1 7GY       0.035000
      5 C13          5.6300    -1.0210     1.8720 ca         1 7GY      -0.083200
      6 C8           2.0740     0.0000     1.2090 cp         1 7GY      -0.091000
      7 C1           2.6130    -1.4210    -1.6150 c3         1 7GY      -0.089100
      8 C3           1.3780     0.0000     0.0000 ca         1 7GY      -0.041300
      9 C5          -0.6960     0.0060     1.2020 ca         1 7GY       0.135100
     10 C10          4.2580     1.0100     0.5520 ca         1 7GY      -0.097000
     11 C11          5.6230     1.0180     0.5480 ca         1 7GY      -0.082000
     12 C12          6.3230     0.0080     1.2040 ca         1 7GY      -0.159900
     13 C14          4.2410    -1.0170     1.8750 ca         1 7GY      -0.115000
     14 N15          6.5910    -1.8400     2.4070 na         1 7GY       0.091900
     15 N16          7.7700    -1.4160     2.1300 nc         1 7GY      -0.497100
     16 C17          7.7410    -0.3130     1.4130 cd         1 7GY       0.200900
     17 O19          8.7310     1.4590     0.2610 o          1 7GY      -0.418100
     18 N20         10.1520     0.0270     1.1920 nz         1 7GY      -0.675400
     19 O21         -2.0550     0.0120     1.1980 oh         1 7GY      -0.514100
     20 H1          -0.5410    -0.0000    -0.9380 ha         1 7GY       0.154000
     21 H2           1.9100     0.0020     3.3540 ha         1 7GY       0.135000
     22 H3          -0.5510     0.0090     3.3420 ha         1 7GY       0.153000
     23 H4           2.4820    -2.0460    -0.7400 hc         1 7GY       0.039033
     24 H5           3.6610    -1.3940    -1.8870 hc         1 7GY       0.039033
     25 H6           2.0370    -1.8260    -2.4380 hc         1 7GY       0.039033
     26 H7           2.9870     0.6600    -1.2270 hc         1 7GY       0.055200
     27 H8           1.4810     0.3410    -2.0980 hc         1 7GY       0.055200
     28 H9           3.7140     1.8050     0.0570 ha         1 7GY       0.166000
     29 H10          6.1600     1.8070     0.0360 ha         1 7GY       0.157000
     30 H11          3.6990    -1.7220     2.4940 ha         1 7GY       0.156000
     31 H12          6.3980    -2.6640     2.9420 hn         1 7GY       0.360700
     32 H13         10.2850     0.0010     2.1840 hn         1 7GY       0.479800
     33 H14         10.8040     0.6670     0.7850 hn         1 7GY       0.479800
     34 H15         -2.3730    -0.8750     1.1620 ho         1 7GY       0.429000
     35 C18          8.9010     0.4490     0.9180 c          1 7GY       0.468800
     36 C2           2.1330    -0.0010    -1.3040 c3         1 7GY      -0.050100
     37 H203        10.2910    -0.8880     0.8130 hn         1 7GY       0.479800
@<TRIPOS>BOND
     1    18    35 1   
     2    17    35 2   
     3    35    16 1   
     4    16    15 2   
     5    16    12 1   
     6    15    14 1   
     7    12    11 ar  
     8    12     5 ar  
     9    11    10 ar  
    10    14     5 1   
    11     5    13 ar  
    12    10     4 ar  
    13    13     4 ar  
    14     4     6 1   
    15     2     6 ar  
    16     2     3 ar  
    17     6     8 ar  
    18     3     9 ar  
    19     8    36 1   
    20     8     1 ar  
    21    36     7 1   
    22     9     1 ar  
    23     9    19 1   
    24     1    20 1   
    25     2    21 1   
    26     3    22 1   
    27     7    23 1   
    28     7    24 1   
    29     7    25 1   
    30    36    26 1   
    31    36    27 1   
    32    10    28 1   
    33    11    29 1   
    34    13    30 1   
    35    14    31 1   
    36    18    32 1   
    37    18    33 1   
    38    19    34 1   
    39    37    18 1   
@<TRIPOS>SUBSTRUCTURE
     1 7GY         1 TEMP              0 ****  ****    0 ROOT
