@<TRIPOS>MOLECULE
molecule
   45    49     1     0     0
SMALL
bcc


@<TRIPOS>ATOM
      1 C4           0.0000     0.0000     0.0000 ca         1 7GZ      -0.153000
      2 C7           1.3710    -0.0120     2.4130 ca         1 7GZ      -0.099000
      3 C6          -0.0070    -0.0060     2.4060 ca         1 7GZ      -0.159000
      4 C9           3.5570    -0.0070     1.2130 cp         1 7GZ       0.017000
      5 C13          5.6310    -1.0270     1.8620 ca         1 7GZ      -0.020200
      6 C20         10.8620     1.7500     0.5340 ca         1 7GZ      -0.092200
      7 C21         12.1900     2.1160     0.3750 ca         1 7GZ      -0.126000
      8 C8           2.0740     0.0000     1.2090 cp         1 7GZ      -0.056000
      9 C18          8.8800     0.8410     0.9220 cc         1 7GZ       0.432500
     10 C1           2.5320    -1.4330    -1.6620 c3         1 7GZ      -0.089100
     11 C3           1.3790     0.0000     0.0000 ca         1 7GZ      -0.048300
     12 C5          -0.6960    -0.0010     1.2000 ca         1 7GZ       0.111100
     13 C10          4.2600     1.0170     0.5660 ca         1 7GZ      -0.165000
     14 C11          5.6220     1.0260     0.5620 ca         1 7GZ      -0.040000
     15 C12          6.3280     0.0060     1.2080 ca         1 7GZ      -0.231900
     16 C14          4.2410    -1.0230     1.8650 ca         1 7GZ      -0.156000
     17 N15          6.5740    -1.8700     2.3970 na         1 7GZ      -0.047100
     18 N16          7.8510    -1.3910     2.0840 nd         1 7GZ      -0.497100
     19 C17          7.7560    -0.2840     1.3860 cc         1 7GZ       0.371600
     20 N19         10.2290     0.6180     1.0110 na         1 7GZ      -0.256300
     21 C22         12.5010     3.3550    -0.1450 ca         1 7GZ      -0.112000
     22 C23         11.4940     4.2370    -0.5110 ca         1 7GZ      -0.144000
     23 C24         10.1800     3.8950    -0.3620 ca         1 7GZ      -0.070000
     24 C25          9.8410     2.6460     0.1680 ca         1 7GZ       0.095400
     25 N26          8.6600     2.0360     0.4310 nd         1 7GZ      -0.595100
     26 O27         -2.0560     0.0050     1.1950 oh         1 7GZ      -0.523100
     27 H1          -0.5410     0.0020    -0.9390 ha         1 7GZ       0.144000
     28 H2           1.9080    -0.0170     3.3540 ha         1 7GZ       0.138000
     29 H3          -0.5540    -0.0120     3.3420 ha         1 7GZ       0.141000
     30 H4          12.9810     1.4320     0.6590 ha         1 7GZ       0.129000
     31 H5           3.5880    -1.4650    -1.9040 hc         1 7GZ       0.039033
     32 H6           2.3480    -2.0190    -0.7700 hc         1 7GZ       0.039033
     33 H7           1.9610    -1.8410    -2.4870 hc         1 7GZ       0.039033
     34 H8           3.0250     0.6090    -1.2050 hc         1 7GZ       0.054700
     35 H9           1.5050     0.4070    -2.0860 hc         1 7GZ       0.054700
     36 H10          3.7160     1.8170     0.0780 ha         1 7GZ       0.142000
     37 H11          6.1580     1.8210     0.0590 ha         1 7GZ       0.164000
     38 H12          3.6980    -1.7420     2.4660 ha         1 7GZ       0.137000
     39 H13          6.3790    -2.6990     2.9220 hn         1 7GZ       0.337700
     40 H14         10.6680    -0.2550     1.2260 hn         1 7GZ       0.312700
     41 H15         13.5380     3.6410    -0.2690 ha         1 7GZ       0.134000
     42 H16         11.7530     5.2070    -0.9180 ha         1 7GZ       0.134000
     43 H17          9.4020     4.5910    -0.6510 ha         1 7GZ       0.142000
     44 H19         -2.3660     0.8950     1.1860 ho         1 7GZ       0.420000
     45 C2           2.1340     0.0000    -1.3040 c3         1 7GZ      -0.049100
@<TRIPOS>BOND
     1    23    22 ar
     2    23    24 ar
     3    22    21 ar
     4    25    24 1
     5    25     9 2
     6    24     6 ar
     7    18    17 1
     8    18    19 2
     9    21     7 ar
    10     9    19 1
    11     9    20 1
    12    17     5 1
    13     6     7 ar
    14     6    20 1
    15    19    15 1
    16     5    15 ar
    17     5    16 ar
    18    15    14 ar
    19    10    45 1
    20    16     4 ar
    21    14    13 ar
    22    45    11 1
    23     4    13 ar
    24     4     8 1
    25    11     8 ar
    26    11     1 ar
    27     8     2 ar
    28     1    12 ar
    29     2     3 ar
    30    12     3 ar
    31    12    26 1
    32     1    27 1
    33     2    28 1
    34     3    29 1
    35     7    30 1
    36    10    31 1
    37    10    32 1
    38    10    33 1
    39    45    34 1
    40    45    35 1
    41    13    36 1
    42    14    37 1
    43    16    38 1
    44    17    39 1
    45    20    40 1
    46    21    41 1
    47    22    42 1
    48    23    43 1
    49    26    44 1
@<TRIPOS>SUBSTRUCTURE
     1 7GZ         1 TEMP              0 ****  ****    0 ROOT
