@<TRIPOS>MOLECULE
molecule
   40    42     1     0     0
SMALL
bcc


@<TRIPOS>ATOM
      1 C4           0.0000     0.0000     0.0000 c          1 7H0       0.695700
      2 C14          4.9700     0.0000     1.2210 cc         1 7H0       0.171400
      3 C6           0.8490     0.0000     1.1950 cd         1 7H0      -0.099900
      4 C11          2.9610    -0.0000    -0.0660 c          1 7H0       0.579500
      5 C7           0.3100     0.0010     2.4260 cc         1 7H0      -0.011400
      6 C9           2.9090    -0.0000     2.2640 cd         1 7H0       0.211600
      7 C13          4.3560     0.0000     0.0000 cd         1 7H0      -0.293200
      8 N3          -0.4510    -1.1650    -0.5060 ns         1 7H0      -0.570900
      9 C2          -1.2140    -1.1730    -1.7580 c3         1 7H0       0.113000
     10 O5          -0.3020     1.0520    -0.5320 o          1 7H0      -0.565100
     11 S8           1.6840     0.0000     3.5440 ss         1 7H0      -0.105800
     12 N10          2.2280    -0.0000     1.0860 n          1 7H0      -0.073200
     13 O12          2.3980     0.0010    -1.1500 o          1 7H0      -0.599500
     14 N15          4.2260    -0.0010     2.3220 nc         1 7H0      -0.353600
     15 N17          6.9590     1.3690     1.4680 na         1 7H0       0.081400
     16 C18          7.1510     2.0210     2.6330 cd         1 7H0       0.046100
     17 C19          7.6060     3.2630     2.3410 cc         1 7H0      -0.296300
     18 C20          7.6930     3.3710     0.9490 cc         1 7H0       0.258600
     19 N21          7.3110     2.2350     0.4250 nd         1 7H0      -0.443800
     20 C22          8.1560     4.5850     0.1850 c3         1 7H0       0.616600
     21 F23          9.5020     4.8340     0.4760 f          1 7H0      -0.211967
     22 F24          8.0110     4.3560    -1.1880 f          1 7H0      -0.211967
     23 F25          7.3860     5.6920     0.5570 f          1 7H0      -0.211967
     24 Cl2          6.8680     1.3820     4.2230 cl         1 7H0      -0.031400
     25 C27         -1.1550     0.0010     2.7800 c3         1 7H0      -0.007800
     26 H1           4.9460     0.0000    -0.9080 ha         1 7H0       0.182000
     27 H3          -0.2780    -2.0220    -0.0200 hn         1 7H0       0.313500
     28 H4          -2.1490    -2.6200    -3.0430 hc         1 7H0       0.043700
     29 H5          -0.7090    -3.2130    -2.2050 hc         1 7H0       0.043700
     30 H6          -2.2280    -3.0170    -1.3210 hc         1 7H0       0.043700
     31 H7          -0.6060    -0.7600    -2.5540 h1         1 7H0       0.059700
     32 H8          -2.1090    -0.5750    -1.6390 h1         1 7H0       0.059700
     33 H9           6.7780    -0.5910     2.1780 h1         1 7H0       0.092700
     34 H10          6.8920    -0.4410     0.4190 h1         1 7H0       0.092700
     35 H11          7.8550     4.0360     3.0580 ha         1 7H0       0.179000
     36 H12         -1.2720     0.2150     3.8360 hc         1 7H0       0.063367
     37 H13         -1.5810    -0.9710     2.5600 hc         1 7H0       0.063367
     38 H14         -1.6670     0.7590     2.2000 hc         1 7H0       0.063367
     39 C16          6.4740    -0.0060     1.3190 c3         1 7H0       0.129500
     40 C1          -1.6030    -2.6110    -2.1070 c3         1 7H0      -0.113100
@<TRIPOS>BOND
     1    21    20 1
     2    23    20 1
     3    20    22 1
     4    20    18 1
     5    18    19 2
     6    18    17 1
     7    19    15 1
     8    17    16 2
     9    15    16 1
    10    15    39 1
    11    16    24 1
    12    39     2 1
    13    14     2 1
    14    14     6 2
    15     2     7 2
    16     6    11 1
    17     6    12 1
    18     7     4 1
    19    11     5 1
    20    12     4 1
    21    12     3 1
    22    40     9 1
    23     4    13 2
    24     8     9 1
    25     8     1 1
    26     5     3 2
    27     5    25 1
    28     3     1 1
    29     1    10 2
    30     7    26 1
    31     8    27 1
    32    40    28 1
    33    40    29 1
    34    40    30 1
    35     9    31 1
    36     9    32 1
    37    39    33 1
    38    39    34 1
    39    17    35 1
    40    25    36 1
    41    25    37 1
    42    25    38 1
@<TRIPOS>SUBSTRUCTURE
     1 7H0         1 TEMP              0 ****  ****    0 ROOT
