@<TRIPOS>MOLECULE
7H0
   40    42     1     0     0
SMALL
bcc


@<TRIPOS>ATOM
      1 C4           0.0000     0.0000     0.0000 c          1 7H0       0.611700
      2 C14          4.9700     0.0000     1.2210 cc         1 7H0       0.111400
      3 C6           0.8490     0.0000     1.1950 cc         1 7H0      -0.269900
      4 C11          2.9610    -0.0000    -0.0660 c          1 7H0       0.475500
      5 C7           0.3100     0.0010     2.4260 cd         1 7H0       0.064600
      6 C9           2.9090    -0.0000     2.2640 cd         1 7H0       0.046600
      7 C13          4.3560     0.0000     0.0000 cd         1 7H0      -0.263200
      8 N3          -0.4510    -1.1650    -0.5060 ns         1 7H0      -0.174900
      9 C2          -1.2140    -1.1730    -1.7580 c3         1 7H0       0.049000
     10 O5          -0.3020     1.0520    -0.5320 o          1 7H0      -0.607100
     11 S8           1.6840     0.0000     3.5440 ss         1 7H0      -0.249800
     12 N10          2.2280    -0.0000     1.0860 n          1 7H0       0.405800
     13 O12          2.3980     0.0010    -1.1500 o          1 7H0      -0.641500
     14 N15          4.2260    -0.0010     2.3220 nc         1 7H0      -0.222600
     15 N17          6.9590     1.3690     1.4680 na         1 7H0       0.514400
     16 C18          7.1510     2.0210     2.6330 cc         1 7H0      -0.204900
     17 C19          7.6060     3.2630     2.3410 cd         1 7H0      -0.266300
     18 C20          7.6930     3.3710     0.9490 cd         1 7H0       0.257600
     19 N21          7.3110     2.2350     0.4250 nc         1 7H0      -0.573800
     20 C22          8.1560     4.5850     0.1850 c3         1 7H0       0.573600
     21 F23          9.5020     4.8340     0.4760 f          1 7H0      -0.203300
     22 F24          8.0110     4.3560    -1.1880 f          1 7H0      -0.203300
     23 F25          7.3860     5.6920     0.5570 f          1 7H0      -0.203300
     24 Cl2          6.8680     1.3820     4.2230 cl         1 7H0       0.075600
     25 C27         -1.1550     0.0010     2.7800 c3         1 7H0       0.109200
     26 H1           4.9460     0.0000    -0.9080 ha         1 7H0       0.159000
     27 H3          -0.2780    -2.0220    -0.0200 hn         1 7H0       0.170500
     28 H4          -2.1490    -2.6200    -3.0430 hc         1 7H0       0.008700
     29 H5          -0.7090    -3.2130    -2.2050 hc         1 7H0       0.008700
     30 H6          -2.2280    -3.0170    -1.3210 hc         1 7H0       0.008700
     31 H7          -0.6060    -0.7600    -2.5540 h1         1 7H0       0.031700
     32 H8          -2.1090    -0.5750    -1.6390 h1         1 7H0       0.031700
     33 H9           6.7780    -0.5910     2.1780 h1         1 7H0       0.054700
     34 H10          6.8920    -0.4410     0.4190 h1         1 7H0       0.054700
     35 H11          7.8550     4.0360     3.0580 ha         1 7H0       0.152000
     36 H12         -1.2720     0.2150     3.8360 hc         1 7H0       0.024033
     37 H13         -1.5810    -0.9710     2.5600 hc         1 7H0       0.024033
     38 H14         -1.6670     0.7590     2.2000 hc         1 7H0       0.024033
     39 C16          6.4740    -0.0060     1.3190 c3         1 7H0       0.043500
     40 C1          -1.6030    -2.6110    -2.1070 c3         1 7H0      -0.007100
@<TRIPOS>BOND
     1     1     3 1   
     2     1     8 1   
     3     1    10 2   
     4     2     7 2   
     5     2    14 1   
     6     2    39 1   
     7     3     5 2   
     8     3    12 1   
     9     4     7 1   
    10     4    12 1   
    11     4    13 2   
    12     5    11 1   
    13     5    25 1   
    14     6    11 1   
    15     6    12 1   
    16     6    14 2   
    17     7    26 1   
    18     8     9 1   
    19     8    27 1   
    20     9    31 1   
    21     9    32 1   
    22     9    40 1   
    23    15    16 1   
    24    15    19 1   
    25    15    39 1   
    26    16    17 2   
    27    16    24 1   
    28    17    18 1   
    29    17    35 1   
    30    18    19 2   
    31    18    20 1   
    32    20    21 1   
    33    20    22 1   
    34    20    23 1   
    35    25    36 1   
    36    25    37 1   
    37    25    38 1   
    38    28    40 1   
    39    29    40 1   
    40    30    40 1   
    41    33    39 1   
    42    34    39 1   
@<TRIPOS>SUBSTRUCTURE
     1 7H0         1 TEMP              0 ****  ****    0 ROOT
