@<TRIPOS>MOLECULE
7H1
   39    39     1     0     0
SMALL
bcc


@<TRIPOS>ATOM
      1 O1           0.0000     0.0000     0.0000 o          1 7H1      -0.556100
      2 C            1.2170     0.0000     0.0000 c          1 7H1       0.504100
      3 N            1.7900     0.0000     1.1790 ns         1 7H1       0.010600
      4 O            0.9460    -0.2250     2.2420 oh         1 7H1      -0.440100
      5 C1           2.0610    -0.0280    -1.2750 c3         1 7H1       0.198600
      6 F            3.3230    -0.2450    -0.9170 f          1 7H1      -0.180300
      7 F1           1.9060     1.1750    -1.8310 f          1 7H1      -0.180300
      8 C2           1.7050    -1.1210    -2.3160 c3         1 7H1       0.343600
      9 F2           2.0310    -2.1470    -1.6120 f          1 7H1      -0.133800
     10 F3           0.4740    -0.7850    -2.4780 f          1 7H1      -0.133800
     11 C3           2.5610    -0.7640    -3.4830 c3         1 7H1       0.314600
     12 F4           3.7670    -0.3200    -3.1520 f          1 7H1      -0.151300
     13 F5           1.8680     0.0930    -4.1980 f          1 7H1      -0.151300
     14 C4           2.7750    -1.9500    -4.3660 c3         1 7H1       0.282600
     15 F6           1.6420    -2.5910    -4.5870 f          1 7H1      -0.157300
     16 F7           3.6480    -2.6540    -3.7000 f          1 7H1      -0.157300
     17 C5           3.4470    -1.5400    -5.6660 c3         1 7H1       0.316600
     18 F8           4.7050    -1.2230    -5.3850 f          1 7H1      -0.156300
     19 F9           2.7790    -0.5430    -6.1920 f          1 7H1      -0.156300
     20 C6           3.4410    -2.6100    -6.7230 c3         1 7H1       0.250600
     21 F10          2.1730    -2.8970    -7.0160 f          1 7H1      -0.172800
     22 F11          4.1270    -3.5860    -6.1580 f          1 7H1      -0.172800
     23 C7           4.1650    -2.1560    -7.9710 c          1 7H1       0.511100
     24 O2           4.4610    -0.9870    -8.0170 o          1 7H1      -0.574100
     25 N1           4.4940    -3.0470    -8.9200 ns         1 7H1       0.063900
     26 C8           5.2900    -2.8040   -10.0070 ca         1 7H1      -0.111400
     27 C9           5.6480    -3.9190   -10.7820 ca         1 7H1      -0.131000
     28 C10          6.4640    -3.7960   -11.9060 ca         1 7H1      -0.070500
     29 C11          6.9490    -2.5380   -12.2710 ca         1 7H1      -0.114000
     30 C12          6.6190    -1.4200   -11.5050 ca         1 7H1      -0.070500
     31 C13          5.7930    -1.5440   -10.3870 ca         1 7H1      -0.131000
     32 H1           2.6500     0.4930     1.3170 hn         1 7H1       0.165500
     33 H2           1.4560    -0.4060     3.0150 ho         1 7H1       0.403000
     34 H3           4.1250    -3.9720    -8.8230 hn         1 7H1       0.165500
     35 H4           5.2760    -4.8970   -10.5040 ha         1 7H1       0.126000
     36 H5           6.7210    -4.6700   -12.4910 ha         1 7H1       0.107000
     37 H6           7.5870    -2.4320   -13.1400 ha         1 7H1       0.107000
     38 H7           6.9970    -0.4450   -11.7870 ha         1 7H1       0.107000
     39 H8           5.5450    -0.6670    -9.8010 ha         1 7H1       0.126000
@<TRIPOS>BOND
     1     1     2 2   
     2     2     3 1   
     3     2     5 1   
     4     3     4 1   
     5     3    32 1   
     6     4    33 1   
     7     5     6 1   
     8     5     7 1   
     9     5     8 1   
    10     8     9 1   
    11     8    10 1   
    12     8    11 1   
    13    11    12 1   
    14    11    13 1   
    15    11    14 1   
    16    14    15 1   
    17    14    16 1   
    18    14    17 1   
    19    17    18 1   
    20    17    19 1   
    21    17    20 1   
    22    20    21 1   
    23    20    22 1   
    24    20    23 1   
    25    23    24 2   
    26    23    25 1   
    27    25    26 1   
    28    25    34 1   
    29    26    27 ar  
    30    26    31 ar  
    31    27    28 ar  
    32    27    35 1   
    33    28    29 ar  
    34    28    36 1   
    35    29    30 ar  
    36    29    37 1   
    37    30    31 ar  
    38    30    38 1   
    39    31    39 1   
@<TRIPOS>SUBSTRUCTURE
     1 7H1         1 TEMP              0 ****  ****    0 ROOT
