@<TRIPOS>MOLECULE
molecule
   39    39     1     0     0
SMALL
bcc


@<TRIPOS>ATOM
      1 O1           0.0000     0.0000     0.0000 o          1 7H1      -0.519100
      2 C            1.2170     0.0000     0.0000 c          1 7H1       0.608100
      3 N            1.7900     0.0000     1.1790 ns         1 7H1      -0.418400
      4 O            0.9460    -0.2250     2.2420 oh         1 7H1      -0.364100
      5 C1           2.0610    -0.0280    -1.2750 c3         1 7H1       0.257600
      6 F            3.3230    -0.2450    -0.9170 f          1 7H1      -0.205800
      7 F1           1.9060     1.1750    -1.8310 f          1 7H1      -0.205800
      8 C2           1.7050    -1.1210    -2.3160 c3         1 7H1       0.410600
      9 F2           2.0310    -2.1470    -1.6120 f          1 7H1      -0.153300
     10 F3           0.4740    -0.7850    -2.4780 f          1 7H1      -0.153300
     11 C3           2.5610    -0.7640    -3.4830 c3         1 7H1       0.348600
     12 F4           3.7670    -0.3200    -3.1520 f          1 7H1      -0.167800
     13 F5           1.8680     0.0930    -4.1980 f          1 7H1      -0.167800
     14 C4           2.7750    -1.9500    -4.3660 c3         1 7H1       0.333600
     15 F6           1.6420    -2.5910    -4.5870 f          1 7H1      -0.182300
     16 F7           3.6480    -2.6540    -3.7000 f          1 7H1      -0.182300
     17 C5           3.4470    -1.5400    -5.6660 c3         1 7H1       0.363600
     18 F8           4.7050    -1.2230    -5.3850 f          1 7H1      -0.175800
     19 F9           2.7790    -0.5430    -6.1920 f          1 7H1      -0.175800
     20 C6           3.4410    -2.6100    -6.7230 c3         1 7H1       0.312600
     21 F10          2.1730    -2.8970    -7.0160 f          1 7H1      -0.197300
     22 F11          4.1270    -3.5860    -6.1580 f          1 7H1      -0.197300
     23 C7           4.1650    -2.1560    -7.9710 c          1 7H1       0.623100
     24 O2           4.4610    -0.9870    -8.0170 o          1 7H1      -0.533100
     25 N1           4.4940    -3.0470    -8.9200 ns         1 7H1      -0.423100
     26 C8           5.2900    -2.8040   -10.0070 ca         1 7H1       0.054600
     27 C9           5.6480    -3.9190   -10.7820 ca         1 7H1      -0.161000
     28 C10          6.4640    -3.7960   -11.9060 ca         1 7H1      -0.100500
     29 C11          6.9490    -2.5380   -12.2710 ca         1 7H1      -0.147000
     30 C12          6.6190    -1.4200   -11.5050 ca         1 7H1      -0.100500
     31 C13          5.7930    -1.5440   -10.3870 ca         1 7H1      -0.161000
     32 H1           2.6500     0.4930     1.3170 hn         1 7H1       0.331500
     33 H2           1.4560    -0.4060     3.0150 ho         1 7H1       0.412000
     34 H3           4.1250    -3.9720    -8.8230 hn         1 7H1       0.332500
     35 H4           5.2760    -4.8970   -10.5040 ha         1 7H1       0.147500
     36 H5           6.7210    -4.6700   -12.4910 ha         1 7H1       0.138000
     37 H6           7.5870    -2.4320   -13.1400 ha         1 7H1       0.135000
     38 H7           6.9970    -0.4450   -11.7870 ha         1 7H1       0.138000
     39 H8           5.5450    -0.6670    -9.8010 ha         1 7H1       0.147500
@<TRIPOS>BOND
     1    29    28 ar
     2    29    30 ar
     3    28    27 ar
     4    30    31 ar
     5    27    26 ar
     6    31    26 ar
     7    26    25 1
     8    25    23 1
     9    23    24 2
    10    23    20 1
    11    21    20 1
    12    20    22 1
    13    20    17 1
    14    19    17 1
    15    17    18 1
    16    17    14 1
    17    15    14 1
    18    14    16 1
    19    14    11 1
    20    13    11 1
    21    11    12 1
    22    11     8 1
    23     8    10 1
    24     8     9 1
    25     8     5 1
    26     7     5 1
    27     5     6 1
    28     5     2 1
    29     2     1 2
    30     2     3 1
    31     3     4 1
    32     3    32 1
    33     4    33 1
    34    25    34 1
    35    27    35 1
    36    28    36 1
    37    29    37 1
    38    30    38 1
    39    31    39 1
@<TRIPOS>SUBSTRUCTURE
     1 7H1         1 TEMP              0 ****  ****    0 ROOT
