@<TRIPOS>MOLECULE
molecule
   41    44     1     0     0
SMALL
bcc


@<TRIPOS>ATOM
      1 C4           0.0000     0.0000     0.0000 cc         1 7H2      -0.160000
      2 C14          3.0870     1.1980    -3.9410 cx         1 7H2      -0.114400
      3 C5           1.4070     0.0000     0.0000 cc         1 7H2       0.152700
      4 C7           3.3860    -0.0010     1.2010 cd         1 7H2       0.159400
      5 C8           4.1150    -0.0020     0.0290 cc         1 7H2      -0.352200
      6 C9           3.4330     0.0040    -1.1930 c          1 7H2       0.577500
      7 C12          1.4040    -0.0000    -2.3680 cc         1 7H2       0.121400
      8 C13          2.1670     0.0050    -3.6670 cx         1 7H2      -0.097400
      9 C3          -0.6700    -0.0050    -1.1860 cd         1 7H2      -0.049000
     10 C2           0.0510    -0.0050    -2.3880 cd         1 7H2      -0.185300
     11 N6           2.0630     0.0000     1.1600 nd         1 7H2      -0.358600
     12 O10          4.0490     0.0090    -2.2480 o          1 7H2      -0.602500
     13 N11          2.0820    -0.0010    -1.1880 n          1 7H2      -0.081200
     14 C15          1.7740     1.0510    -4.7130 cx         1 7H2      -0.380600
     15 C16          1.8590     0.6600    -6.1300 c1         1 7H2       0.333700
     16 N17          1.9140     0.3430    -7.2190 n1         1 7H2      -0.327800
     17 C18          4.0980    -0.0020     2.5300 c3         1 7H2       0.021500
     18 N19          4.2220     1.3750     3.0180 na         1 7H2       0.119400
     19 C20          5.2460     2.2170     2.7640 cc         1 7H2      -0.008900
     20 C21          4.9830     3.3880     3.3940 cd         1 7H2      -0.266300
     21 C22          3.7560     3.2530     4.0530 cd         1 7H2       0.260600
     22 N23          3.2970     2.0500     3.8230 nc         1 7H2      -0.434800
     23 C24          3.0790     4.3150     4.8810 c3         1 7H2       0.614600
     24 F25          4.0450     5.1420     5.4630 f          1 7H2      -0.212633
     25 F26          2.2420     5.0810     4.0610 f          1 7H2      -0.212633
     26 F27          2.3180     3.7080     5.8860 f          1 7H2      -0.212633
     27 Cl1          6.6490     1.8640     1.8040 cl         1 7H2      -0.027400
     28 H1          -0.6040     0.1950     0.8780 ha         1 7H2       0.179000
     29 H2           2.8800     1.8400    -3.0930 hc         1 7H2       0.135700
     30 H3           3.0560     1.4590    -4.9920 hc         1 7H2       0.135700
     31 H4           5.1210     0.1420     0.4060 ha         1 7H2       0.169000
     32 H6           1.6410     0.3860    -2.8000 hc         1 7H2       0.149700
     33 H7          -1.7500     0.0770    -1.1820 ha         1 7H2       0.157000
     34 H8          -0.2960    -0.9810    -3.9670 hc         1 7H2       0.077367
     35 H9          -0.0940     0.6070    -4.3800 hc         1 7H2       0.077367
     36 H10         -1.7570    -0.1240    -3.7430 hc         1 7H2       0.077367
     37 H11          2.0660     0.7390    -5.7080 hc         1 7H2       0.178700
     38 H12          4.3530    -1.0540     2.5630 h1         1 7H2       0.138200
     39 H13          4.8670     0.7030     2.2370 h1         1 7H2       0.138200
     40 H14          5.7870     4.1120     3.3350 ha         1 7H2       0.184000
     41 C1          -0.6810    -0.0040    -3.7050 c3         1 7H2      -0.073800
@<TRIPOS>BOND
     1     2     8 1   
     2     2    14 1   
     3     8     7 1   
     4     8    14 1   
     5    41    10 1   
     6     7    10 2   
     7     7    13 1   
     8    12     6 2   
     9    10     9 1   
    10    14    15 1   
    11    15    16 3   
    12     6    13 1   
    13     6     5 1   
    14    13     3 1   
    15     9     1 2   
    16     5     4 2   
    17     3     1 1   
    18     3    11 2   
    19    27    19 1   
    20     4    11 1   
    21     4    17 1   
    22    17    18 1   
    23    19    18 1   
    24    19    20 2   
    25    18    22 1   
    26    20    21 1   
    27    22    21 2   
    28    21    23 1   
    29    24    23 1   
    30    26    23 1   
    31    23    25 1   
    32     1    28 1   
    33     2    29 1   
    34     2    30 1   
    35     5    31 1   
    36     8    32 1   
    37     9    33 1   
    38    41    34 1   
    39    41    35 1   
    40    41    36 1   
    41    14    37 1   
    42    17    38 1   
    43    17    39 1   
    44    20    40 1   
@<TRIPOS>SUBSTRUCTURE
     1 7H2         1 TEMP              0 ****  ****    0 ROOT
