@<TRIPOS>MOLECULE
7H2
   41    46     1     0     0
SMALL
bcc


@<TRIPOS>ATOM
      1 C4           0.0000     0.0000     0.0000 c2         1 7H2      -0.128000
      2 C14          3.0870     1.1980    -3.9410 cx         1 7H2      -0.144000
      3 C5           1.4070     0.0000     0.0000 c2         1 7H2      -0.030000
      4 C7           3.3860    -0.0010     1.2010 c2         1 7H2      -0.027000
      5 C8           4.1150    -0.0020     0.0290 c2         1 7H2      -0.324000
      6 C9           3.4330     0.0040    -1.1930 c2         1 7H2       0.223000
      7 C12          1.4040    -0.0000    -2.3680 c3         1 7H2       0.100000
      8 C13          2.1670     0.0050    -3.6670 cx         1 7H2      -0.125000
      9 C3          -0.6700    -0.0050    -1.1860 c2         1 7H2      -0.024000
     10 C2           0.0510    -0.0050    -2.3880 c2         1 7H2      -0.178000
     11 N6           2.0630     0.0000     1.1600 n2         1 7H2      -0.116000
     12 O10          4.0490     0.0090    -2.2480 o          1 7H2      -0.371000
     13 N11          2.0820    -0.0010    -1.1880 n          1 7H2       0.313000
     14 C15          1.7740     1.0510    -4.7130 cx         1 7H2      -0.314000
     15 C16          1.8590     0.6600    -6.1300 c1         1 7H2       0.132000
     16 N17          1.9140     0.3430    -7.2190 n1         1 7H2      -0.047000
     17 C18          4.0980    -0.0020     2.5300 c3         1 7H2      -0.128000
     18 N19          4.2220     1.3750     3.0180 nx         1 7H2       0.396000
     19 C20          5.2460     2.2170     2.7640 c2         1 7H2      -0.334000
     20 C21          4.9830     3.3880     3.3940 c2         1 7H2      -0.176000
     21 C22          3.7560     3.2530     4.0530 c2         1 7H2      -0.160000
     22 N23          3.2970     2.0500     3.8230 n2         1 7H2      -0.132000
     23 C24          3.0790     4.3150     4.8810 c3         1 7H2       0.453000
     24 F25          4.0450     5.1420     5.4630 f          1 7H2      -0.132333
     25 F26          2.2420     5.0810     4.0610 f          1 7H2      -0.132333
     26 F27          2.3180     3.7080     5.8860 f          1 7H2      -0.132333
     27 Cl1          6.6490     1.8640     1.8040 cl         1 7H2       0.168000
     28 H1          -0.6040     0.1950     0.8780 ha         1 7H2       0.146000
     29 H2           2.8800     1.8400    -3.0930 hc         1 7H2       0.140500
     30 H3           3.0560     1.4590    -4.9920 hc         1 7H2       0.140500
     31 H4           5.1210     0.1420     0.4060 ha         1 7H2       0.148000
     32 H6           1.6410     0.3860    -2.8000 DU         1 7H2       0.080000
     33 H7          -1.7500     0.0770    -1.1820 ha         1 7H2       0.124000
     34 H8          -0.2960    -0.9810    -3.9670 hc         1 7H2       0.084667
     35 H9          -0.0940     0.6070    -4.3800 hc         1 7H2       0.084667
     36 H10         -1.7570    -0.1240    -3.7430 hc         1 7H2       0.084667
     37 H11          2.0660     0.7390    -5.7080 hc         1 7H2       0.059000
     38 H12          4.3530    -1.0540     2.5630 hx         1 7H2       0.193000
     39 H13          4.8670     0.7030     2.2370 DU         1 7H2       0.043000
     40 H14          5.7870     4.1120     3.3350 ha         1 7H2       0.155000
     41 C1          -0.6810    -0.0040    -3.7050 c3         1 7H2      -0.111000
@<TRIPOS>BOND
     1     1     3 1   
     2     1     9 1   
     3     1    28 1   
     4     2     8 1   
     5     2    14 1   
     6     2    29 1   
     7     2    30 1   
     8     3    11 1   
     9     3    13 1   
    10     4     5 1   
    11     4    11 1   
    12     4    17 1   
    13     5     6 1   
    14     5    31 1   
    15     6    12 1   
    16     6    13 1   
    17     7     8 1   
    18     7    10 1   
    19     7    13 1   
    20     7    32 1   
    21     8    14 1   
    22     8    32 1   
    23     9    10 1   
    24     9    33 1   
    25    10    41 1   
    26    14    15 1   
    27    14    37 1   
    28    15    16 1   
    29    17    18 1   
    30    17    38 1   
    31    17    39 1   
    32    18    19 1   
    33    18    22 1   
    34    18    39 1   
    35    19    20 1   
    36    19    27 1   
    37    20    21 1   
    38    20    40 1   
    39    21    22 1   
    40    21    23 1   
    41    23    24 1   
    42    23    25 1   
    43    23    26 1   
    44    34    41 1   
    45    35    41 1   
    46    36    41 1   
@<TRIPOS>SUBSTRUCTURE
     1 7H2         1 TEMP              0 ****  ****    0 ROOT
