@<TRIPOS>MOLECULE
molecule
   42    44     1     0     0
SMALL
bcc


@<TRIPOS>ATOM
      1 N3           0.0000     0.0000     0.0000 na         1 7H4      -0.270100
      2 C4           2.4900     0.5860     6.5630 c3         1 7H4      -0.097400
      3 N2           1.5150    -0.0130     4.4000 nu         1 7H4      -0.894900
      4 C7           2.3160    -3.3660     5.4500 c          1 7H4       0.668100
      5 C6           1.0640    -1.4530     6.3270 c3         1 7H4       0.087000
      6 C9           1.3010    -5.2660     4.2220 c3         1 7H4      -0.077100
      7 C13          1.3710     0.0000     0.0000 cc         1 7H4      -0.113100
      8 C8           1.0180    -3.9600     4.9670 c3         1 7H4      -0.162400
      9 N5          -0.8060    -0.0020     3.9740 nb         1 7H4      -0.851000
     10 C1           4.7390    -2.5220     6.2510 c3         1 7H4      -0.083100
     11 C2           3.5540    -1.6700     6.7090 c3         1 7H4       0.117700
     12 C3           3.7390    -0.2290     6.2230 c3         1 7H4      -0.099400
     13 C5           1.2780    -0.0140     5.8460 c3         1 7H4       0.228500
     14 N1           2.3110    -2.2050     6.1360 n          1 7H4      -0.491800
     15 O1           3.3640    -3.9300     5.2220 o          1 7H4      -0.616100
     16 C10          0.4450    -0.0070     3.5230 ca         1 7H4       0.770200
     17 C11          0.6530     0.0010     2.1350 ca         1 7H4      -0.408400
     18 C12          1.8260     0.0000     1.2630 cd         1 7H4      -0.167200
     19 C14         -0.4690     0.0010     1.2850 ca         1 7H4       0.519800
     20 N4          -1.6820     0.0050     1.8330 nb         1 7H4      -0.804000
     21 C15         -1.8300     0.0040     3.1400 ca         1 7H4       0.740900
     22 H1          -0.5740    -0.0000    -0.8200 hn         1 7H4       0.306700
     23 H2           2.3230     0.5590     7.6330 hc         1 7H4       0.054700
     24 H3           2.6290     1.6100     6.2390 hc         1 7H4       0.054700
     25 H4           2.4510     0.0380     4.0480 hn         1 7H4       0.456800
     26 H5           0.8010    -1.4480     7.3780 h1         1 7H4       0.061700
     27 H6           0.2710    -1.9140     5.7510 h1         1 7H4       0.061700
     28 H7           0.3690    -5.6900     3.8690 hc         1 7H4       0.042367
     29 H8           1.9500    -5.0660     3.3770 hc         1 7H4       0.042367
     30 H9           1.7860    -5.9660     4.8920 hc         1 7H4       0.042367
     31 H10          1.9940    -0.0000    -0.8860 h4         1 7H4       0.171000
     32 H11          0.3750    -4.1600     5.8160 hc         1 7H4       0.062200
     33 H12          0.5270    -3.2620     4.2990 hc         1 7H4       0.062200
     34 H13          4.7590    -2.5610     5.1680 hc         1 7H4       0.049033
     35 H14          4.6370    -3.5250     6.6470 hc         1 7H4       0.049033
     36 H15          5.6610    -2.0830     6.6130 hc         1 7H4       0.049033
     37 H16          3.4880    -1.6820     7.7900 h1         1 7H4       0.046700
     38 H17          3.8900    -0.2270     5.1500 hc         1 7H4       0.049700
     39 H18          4.5990     0.2090     6.7150 hc         1 7H4       0.049700
     40 H19          0.3970     0.5760     6.0730 h1         1 7H4       0.086700
     41 H20          2.8630     0.0000     1.5760 ha         1 7H4       0.152000
     42 H21         -2.8330     0.0070     3.5490 h5         1 7H4       0.057100
@<TRIPOS>BOND
     1     6     8 1
     2    10    11 1
     3     8     4 1
     4    11    14 1
     5    11    12 1
     6     4    14 1
     7     4    15 2
     8    14     5 1
     9     5    13 1
    10    12     2 1
    11    13     2 1
    12    13     3 1
    13     3    16 1
    14    18     7 2
    15    18    17 1
    16     7     1 1
    17    17    16 ar
    18    17    19 ar
    19    16     9 ar
    20     1    19 1
    21     9    21 ar
    22    19    20 ar
    23    21    20 ar
    24     1    22 1
    25     2    23 1
    26     2    24 1
    27     3    25 1
    28     5    26 1
    29     5    27 1
    30     6    28 1
    31     6    29 1
    32     6    30 1
    33     7    31 1
    34     8    32 1
    35     8    33 1
    36    10    34 1
    37    10    35 1
    38    10    36 1
    39    11    37 1
    40    12    38 1
    41    12    39 1
    42    13    40 1
    43    18    41 1
    44    21    42 1
@<TRIPOS>SUBSTRUCTURE
     1 7H4         1 TEMP              0 ****  ****    0 ROOT
