@<TRIPOS>MOLECULE
molecule
   71    75     1     0     0
SMALL
bcc


@<TRIPOS>ATOM
      1 C4           0.0000     0.0000     0.0000 c          1 7H5       0.897600
      2 C5           3.7480    -2.8780     0.4310 c3         1 7H5      -0.067900
      3 C6           5.1620    -2.9720     1.0150 c3         1 7H5       0.168300
      4 C7           7.4320    -2.6810     0.4650 ca         1 7H5       0.719200
      5 C3           2.0540    -1.3280    -0.5860 c3         1 7H5      -0.047400
      6 C2           1.5070     0.0000     0.0000 c3         1 7H5       0.049500
      7 C1           3.4040    -0.5480     1.3040 c3         1 7H5       0.141800
      8 O           -0.6040    -0.2450     1.0170 o          1 7H5      -0.836300
      9 C            3.4540    -1.4310     0.0490 c3         1 7H5      -0.085000
     10 N            2.0310     0.0000     1.3900 n7         1 7H5      -0.760200
     11 O4          17.5280    -3.8440     4.7410 o          1 7H5      -0.621800
     12 O3          18.3140    -3.2740     2.4660 o          1 7H5      -0.621800
     13 C25         17.0180    -5.5840     2.7860 c3         1 7H5      -0.225300
     14 C23         15.8700    -3.0140     3.0320 ca         1 7H5      -0.298500
     15 C22         14.9020    -2.9460     4.0190 ca         1 7H5      -0.027000
     16 C21         13.7240    -2.2590     3.7910 ca         1 7H5      -0.146000
     17 C20         13.5070    -1.6370     2.5780 ca         1 7H5      -0.064000
     18 C24         15.6660    -2.3910     1.8170 ca         1 7H5      -0.004000
     19 C19         14.4780    -1.7020     1.5810 cp         1 7H5      -0.072000
     20 C14         14.2530    -1.0300     0.2770 cp         1 7H5      -0.008000
     21 C15         15.1580    -0.0760    -0.1830 ca         1 7H5      -0.114000
     22 C16         14.9440     0.5460    -1.3970 ca         1 7H5       0.041400
     23 Cl          16.0700     1.7350    -1.9730 cl         1 7H5      -0.103400
     24 C17         13.8330     0.2210    -2.1570 ca         1 7H5      -0.125000
     25 C18         12.9320    -0.7260    -1.7040 ca         1 7H5      -0.074000
     26 C13         13.1400    -1.3570    -0.4950 ca         1 7H5      -0.100300
     27 C11         12.1610    -2.3940    -0.0060 c3         1 7H5       0.147400
     28 C12         12.6370    -3.7840    -0.4300 c3         1 7H5       0.602900
     29 F2          12.7210    -3.8440    -1.8250 f          1 7H5      -0.220633
     30 F1          11.7280    -4.7460     0.0240 f          1 7H5      -0.220633
     31 O2          10.8740    -2.1370    -0.5720 os         1 7H5      -0.417100
     32 C9           9.7940    -2.5040     0.1610 ca         1 7H5       0.716600
     33 C8           8.5110    -2.2890    -0.3230 ca         1 7H5      -0.456600
     34 N2           9.9530    -3.0750     1.3510 nb         1 7H5      -0.908000
     35 C10          8.9040    -3.4380     2.0740 ca         1 7H5       0.996900
     36 N4           9.1080    -4.0300     3.3080 nv         1 7H5      -0.999500
     37 N3           7.6640    -3.2480     1.6460 nb         1 7H5      -0.855000
     38 N1           6.1310    -2.4810     0.0270 nh         1 7H5      -0.688300
     39 C26          5.8970    -1.0680    -0.2950 c3         1 7H5       0.168300
     40 C27          4.5090    -0.9110    -0.9220 c3         1 7H5      -0.067900
     41 O1          -0.6710     0.2780    -1.1290 o          1 7H5      -0.836300
     42 H1           3.6800    -3.5040    -0.4500 hc         1 7H5       0.056450
     43 H2           3.0300    -3.2080     1.1720 hc         1 7H5       0.056450
     44 H3           5.3840    -4.0040     1.2560 h1         1 7H5       0.046700
     45 H4           5.2220    -2.3650     1.9110 h1         1 7H5       0.046700
     46 H5           1.4340    -2.1630    -0.2830 hc         1 7H5       0.055200
     47 H6           2.1280    -1.2670    -1.6650 hc         1 7H5       0.055200
     48 H7           1.8960     0.8470    -0.5520 h1         1 7H5       0.016700
     49 H8           3.6180    -1.1430     2.1830 h1         1 7H5       0.017700
     50 H9           4.1190     0.2610     1.2150 h1         1 7H5       0.017700
     51 H10          2.0670     0.9400     1.7320 hn         1 7H5       0.334800
     52 H12         16.1140    -5.9380     3.2650 h1         1 7H5       0.099367
     53 H13         17.8450    -6.2330     3.0510 h1         1 7H5       0.099367
     54 H14         16.8840    -5.5920     1.7110 h1         1 7H5       0.099367
     55 H15         15.0680    -3.4320     4.9720 ha         1 7H5       0.150000
     56 H16         12.9690    -2.2090     4.5670 ha         1 7H5       0.142000
     57 H17         12.5820    -1.1000     2.4000 ha         1 7H5       0.149000
     58 H18         16.4250    -2.4450     1.0460 ha         1 7H5       0.158000
     59 H19         15.9910     0.2250     0.4400 ha         1 7H5       0.156000
     60 H20         13.6670     0.7120    -3.1080 ha         1 7H5       0.150000
     61 H21         12.0650    -0.9780    -2.3030 ha         1 7H5       0.162000
     62 H22         12.0960    -2.3480     1.0740 h1         1 7H5       0.120700
     63 H23          8.3520    -1.8240    -1.2890 ha         1 7H5       0.163000
     64 H24          9.9850    -4.4650     3.5150 hn         1 7H5       0.447800
     65 H25          8.3610    -4.0690     3.9740 hn         1 7H5       0.447800
     66 H26          6.6490    -0.7290    -0.9970 h1         1 7H5       0.046700
     67 H27          5.9500    -0.4790     0.6130 h1         1 7H5       0.046700
     68 H28          4.3230     0.1360    -1.1300 hc         1 7H5       0.056450
     69 H29          4.4630    -1.4810    -1.8430 hc         1 7H5       0.056450
     70 F           13.8970    -4.0350     0.1250 f          1 7H5      -0.220633
     71 S           17.3690    -3.8900     3.3300 sy         1 7H5       1.194300
@<TRIPOS>BOND
     1    13    71 1
     2    11    71 2
     3    12    71 2
     4     8     1 1
     5    71    14 1
     6    36    35 1
     7     1     6 1
     8     1    41 1
     9    40    39 1
    10    40     9 1
    11     5     6 1
    12     5     9 1
    13     6    10 1
    14    39    38 1
    15    14    15 ar
    16    14    18 ar
    17    37    35 ar
    18    37     4 ar
    19    35    34 ar
    20     9     2 1
    21     9     7 1
    22    15    16 ar
    23    38     4 1
    24    38     3 1
    25    18    19 ar
    26     2     3 1
    27     4    33 ar
    28    10     7 1
    29    34    32 ar
    30    16    17 ar
    31    33    32 ar
    32    19    17 ar
    33    19    20 1
    34    32    31 1
    35    21    20 ar
    36    21    22 ar
    37    20    26 ar
    38    23    22 1
    39    22    24 ar
    40    31    27 1
    41    26    27 1
    42    26    25 ar
    43    27    28 1
    44    24    25 ar
    45    28    70 1
    46    28    30 1
    47    28    29 1
    48     2    42 1
    49     2    43 1
    50     3    44 1
    51     3    45 1
    52     5    46 1
    53     5    47 1
    54     6    48 1
    55     7    49 1
    56     7    50 1
    57    10    51 1
    58    13    52 1
    59    13    53 1
    60    13    54 1
    61    15    55 1
    62    16    56 1
    63    17    57 1
    64    18    58 1
    65    21    59 1
    66    24    60 1
    67    25    61 1
    68    27    62 1
    69    33    63 1
    70    36    64 1
    71    36    65 1
    72    39    66 1
    73    39    67 1
    74    40    68 1
    75    40    69 1
@<TRIPOS>SUBSTRUCTURE
     1 7H5         1 TEMP              0 ****  ****    0 ROOT
