@<TRIPOS>MOLECULE
7H5
   71    75     1     0     0
SMALL
bcc


@<TRIPOS>ATOM
      1 C4           0.0000     0.0000     0.0000 c          1 7H5       0.980600
      2 C5           3.7480    -2.8780     0.4310 c3         1 7H5      -0.017400
      3 C6           5.1620    -2.9720     1.0150 c3         1 7H5       0.131800
      4 C7           7.4320    -2.6810     0.4650 ca         1 7H5       0.605200
      5 C3           2.0540    -1.3280    -0.5860 c3         1 7H5       0.002600
      6 C2           1.5070     0.0000     0.0000 c3         1 7H5       0.012500
      7 C1           3.4040    -0.5480     1.3040 c3         1 7H5       0.125800
      8 O           -0.6040    -0.2450     1.0170 o          1 7H5      -0.887800
      9 C            3.4540    -1.4310     0.0490 c3         1 7H5      -0.086000
     10 N            2.0310     0.0000     1.3900 n7         1 7H5      -0.541200
     11 O4          17.5280    -3.8440     4.7410 o          1 7H5      -0.591800
     12 O3          18.3140    -3.2740     2.4660 o          1 7H5      -0.591800
     13 C25         17.0180    -5.5840     2.7860 c3         1 7H5       0.029700
     14 C23         15.8700    -3.0140     3.0320 ca         1 7H5      -0.156500
     15 C22         14.9020    -2.9460     4.0190 ca         1 7H5       0.005000
     16 C21         13.7240    -2.2590     3.7910 ca         1 7H5      -0.127000
     17 C20         13.5070    -1.6370     2.5780 ca         1 7H5      -0.046000
     18 C24         15.6660    -2.3910     1.8170 ca         1 7H5       0.025000
     19 C19         14.4780    -1.7020     1.5810 cp         1 7H5      -0.079000
     20 C14         14.2530    -1.0300     0.2770 cp         1 7H5       0.002000
     21 C15         15.1580    -0.0760    -0.1830 ca         1 7H5      -0.092000
     22 C16         14.9440     0.5460    -1.3970 ca         1 7H5      -0.021600
     23 Cl          16.0700     1.7350    -1.9730 cl         1 7H5      -0.022400
     24 C17         13.8330     0.2210    -2.1570 ca         1 7H5      -0.101000
     25 C18         12.9320    -0.7260    -1.7040 ca         1 7H5      -0.047000
     26 C13         13.1400    -1.3570    -0.4950 ca         1 7H5      -0.114300
     27 C11         12.1610    -2.3940    -0.0060 c3         1 7H5       0.156400
     28 C12         12.6370    -3.7840    -0.4300 c3         1 7H5       0.560900
     29 F2          12.7210    -3.8440    -1.8250 f          1 7H5      -0.206967
     30 F1          11.7280    -4.7460     0.0240 f          1 7H5      -0.206967
     31 O2          10.8740    -2.1370    -0.5720 os         1 7H5      -0.397100
     32 C9           9.7940    -2.5040     0.1610 ca         1 7H5       0.688600
     33 C8           8.5110    -2.2890    -0.3230 ca         1 7H5      -0.457600
     34 N2           9.9530    -3.0750     1.3510 nb         1 7H5      -0.812000
     35 C10          8.9040    -3.4380     2.0740 ca         1 7H5       0.769900
     36 N4           9.1080    -4.0300     3.3080 nv         1 7H5      -0.512500
     37 N3           7.6640    -3.2480     1.6460 nb         1 7H5      -0.758000
     38 N1           6.1310    -2.4810     0.0270 nh         1 7H5      -0.444300
     39 C26          5.8970    -1.0680    -0.2950 c3         1 7H5       0.131800
     40 C27          4.5090    -0.9110    -0.9220 c3         1 7H5      -0.017400
     41 O1          -0.6710     0.2780    -1.1290 o          1 7H5      -0.887800
     42 H1           3.6800    -3.5040    -0.4500 hc         1 7H5       0.028200
     43 H2           3.0300    -3.2080     1.1720 hc         1 7H5       0.028200
     44 H3           5.3840    -4.0040     1.2560 h1         1 7H5       0.022450
     45 H4           5.2220    -2.3650     1.9110 h1         1 7H5       0.022450
     46 H5           1.4340    -2.1630    -0.2830 hc         1 7H5       0.028200
     47 H6           2.1280    -1.2670    -1.6650 hc         1 7H5       0.028200
     48 H7           1.8960     0.8470    -0.5520 h1         1 7H5       0.002700
     49 H8           3.6180    -1.1430     2.1830 h1         1 7H5      -0.002800
     50 H9           4.1190     0.2610     1.2150 h1         1 7H5      -0.002800
     51 H10          2.0670     0.9400     1.7320 hn         1 7H5       0.238800
     52 H12         16.1140    -5.9380     3.2650 h1         1 7H5       0.060700
     53 H13         17.8450    -6.2330     3.0510 h1         1 7H5       0.060700
     54 H14         16.8840    -5.5920     1.7110 h1         1 7H5       0.060700
     55 H15         15.0680    -3.4320     4.9720 ha         1 7H5       0.122000
     56 H16         12.9690    -2.2090     4.5670 ha         1 7H5       0.112000
     57 H17         12.5820    -1.1000     2.4000 ha         1 7H5       0.120000
     58 H18         16.4250    -2.4450     1.0460 ha         1 7H5       0.130000
     59 H19         15.9910     0.2250     0.4400 ha         1 7H5       0.126000
     60 H20         13.6670     0.7120    -3.1080 ha         1 7H5       0.118000
     61 H21         12.0650    -0.9780    -2.3030 ha         1 7H5       0.129000
     62 H22         12.0960    -2.3480     1.0740 h1         1 7H5       0.095700
     63 H23          8.3520    -1.8240    -1.2890 ha         1 7H5       0.148000
     64 H24          9.9850    -4.4650     3.5150 hn         1 7H5       0.273800
     65 H25          8.3610    -4.0690     3.9740 hn         1 7H5       0.273800
     66 H26          6.6490    -0.7290    -0.9970 h1         1 7H5       0.022450
     67 H27          5.9500    -0.4790     0.6130 h1         1 7H5       0.022450
     68 H28          4.3230     0.1360    -1.1300 hc         1 7H5       0.028200
     69 H29          4.4630    -1.4810    -1.8430 hc         1 7H5       0.028200
     70 F           13.8970    -4.0350     0.1250 f          1 7H5      -0.206967
     71 S           17.3690    -3.8900     3.3300 sy         1 7H5       0.874300
@<TRIPOS>BOND
     1     1     6 1   
     2     1     8 1   
     3     1    41 1   
     4     2     3 1   
     5     2     9 1   
     6     2    42 1   
     7     2    43 1   
     8     3    38 1   
     9     3    44 1   
    10     3    45 1   
    11     4    33 ar  
    12     4    37 ar  
    13     4    38 1   
    14     5     6 1   
    15     5     9 1   
    16     5    46 1   
    17     5    47 1   
    18     6    10 1   
    19     6    48 1   
    20     7     9 1   
    21     7    10 1   
    22     7    49 1   
    23     7    50 1   
    24     9    40 1   
    25    10    51 1   
    26    11    71 2   
    27    12    71 2   
    28    13    52 1   
    29    13    53 1   
    30    13    54 1   
    31    13    71 1   
    32    14    15 ar  
    33    14    18 ar  
    34    14    71 1   
    35    15    16 ar  
    36    15    55 1   
    37    16    17 ar  
    38    16    56 1   
    39    17    19 ar  
    40    17    57 1   
    41    18    19 ar  
    42    18    58 1   
    43    19    20 1   
    44    20    21 ar  
    45    20    26 ar  
    46    21    22 ar  
    47    21    59 1   
    48    22    23 1   
    49    22    24 ar  
    50    24    25 ar  
    51    24    60 1   
    52    25    26 ar  
    53    25    61 1   
    54    26    27 1   
    55    27    28 1   
    56    27    31 1   
    57    27    62 1   
    58    28    29 1   
    59    28    30 1   
    60    28    70 1   
    61    31    32 1   
    62    32    33 ar  
    63    32    34 ar  
    64    33    63 1   
    65    34    35 ar  
    66    35    36 1   
    67    35    37 ar  
    68    36    64 1   
    69    36    65 1   
    70    38    39 1   
    71    39    40 1   
    72    39    66 1   
    73    39    67 1   
    74    40    68 1   
    75    40    69 1   
@<TRIPOS>SUBSTRUCTURE
     1 7H5         1 TEMP              0 ****  ****    0 ROOT
