@<TRIPOS>MOLECULE
7H7
   51    54     1     0     0
SMALL
bcc


@<TRIPOS>ATOM
      1 C14          0.0000     0.0000     0.0000 c3         1 7H7       0.156600
      2 N5           1.4690     0.0000     0.0000 n3         1 7H7      -0.532600
      3 C13          1.9960     0.0000     1.3710 c3         1 7H7       0.156600
      4 C12          1.9960    -1.1370    -0.7670 c3         1 7H7       0.176800
      5 C15          3.3030    -0.7470    -1.4070 ca         1 7H7      -0.085300
      6 C20          3.7270    -1.3860    -2.5570 ca         1 7H7      -0.098500
      7 C19          4.9270    -1.0300    -3.1440 ca         1 7H7      -0.099000
      8 C18          5.7020    -0.0340    -2.5820 ca         1 7H7      -0.099000
      9 C17          5.2790     0.6060    -1.4320 ca         1 7H7      -0.099000
     10 C16          4.0770     0.2520    -0.8470 ca         1 7H7      -0.098500
     11 C1           2.2210    -2.3230     0.1710 c3         1 7H7       0.083500
     12 C            2.7820    -3.5030    -0.6250 c3         1 7H7      -0.020100
     13 N            0.9470    -2.7090     0.7860 nu         1 7H7      -0.492900
     14 C2           0.9320    -3.2840     2.0480 cc         1 7H7       0.583200
     15 C11         -0.3450    -3.6740     2.6570 ca         1 7H7      -0.198300
     16 C10         -1.5600    -3.4830     1.9990 ca         1 7H7      -0.073000
     17 C9          -2.7330    -3.8660     2.6110 ca         1 7H7      -0.104000
     18 C8          -2.7200    -4.4380     3.8770 ca         1 7H7      -0.070000
     19 C7          -1.5320    -4.6350     4.5450 ca         1 7H7      -0.072000
     20 C6          -0.3330    -4.2570     3.9440 ca         1 7H7       0.068000
     21 C5           0.9620    -4.4420     4.6070 cc         1 7H7      -0.328300
     22 N2           2.1030    -4.0470     3.9600 na         1 7H7       0.590300
     23 N1           2.0540    -3.4790     2.6870 nd         1 7H7      -0.726800
     24 N4           1.3270    -4.9380     5.7720 nd         1 7H7      -0.042000
     25 N3           2.6080    -4.8730     5.8790 nd         1 7H7      -0.354700
     26 C3           3.1230    -4.3380     4.8020 cc         1 7H7       0.146800
     27 C4           4.5860    -4.0900     4.5430 c3         1 7H7       0.035600
     28 H1          -0.3610    -0.6860    -0.7560 h1         1 7H7       0.011367
     29 H2          -0.3610     0.9980    -0.2170 h1         1 7H7       0.011367
     30 H3          -0.3610    -0.3110     0.9730 h1         1 7H7       0.011367
     31 H5           2.1420     1.0210     1.7010 h1         1 7H7       0.011367
     32 H6           2.9420    -0.5260     1.3950 h1         1 7H7       0.011367
     33 H7           1.2910    -0.4940     2.0290 h1         1 7H7       0.011367
     34 H8           1.2850    -1.4140    -1.5360 h1         1 7H7       0.042700
     35 H9           3.1190    -2.1670    -2.9980 ha         1 7H7       0.115500
     36 H10          5.2590    -1.5310    -4.0460 ha         1 7H7       0.103000
     37 H11          6.6430     0.2440    -3.0410 ha         1 7H7       0.102000
     38 H12          5.8860     1.3880    -0.9920 ha         1 7H7       0.103000
     39 H13          3.7450     0.7540     0.0540 ha         1 7H7       0.115500
     40 H14          2.9250    -2.0430     0.9460 h1         1 7H7       0.087700
     41 H15          2.4040    -3.4670    -1.6390 hc         1 7H7       0.017033
     42 H16          2.4750    -4.4320    -0.1590 hc         1 7H7       0.017033
     43 H17          3.8640    -3.4470    -0.6400 hc         1 7H7       0.017033
     44 H18          0.0950    -2.6150     0.2690 hn         1 7H7       0.306800
     45 H19         -1.5800    -3.0380     1.0120 ha         1 7H7       0.103000
     46 H20         -3.6770    -3.7180     2.1000 ha         1 7H7       0.108000
     47 H21         -3.6530    -4.7320     4.3420 ha         1 7H7       0.109000
     48 H22         -1.5300    -5.0820     5.5320 ha         1 7H7       0.134000
     49 H23          5.1660    -4.4370     5.3900 hc         1 7H7       0.015367
     50 H24          4.7540    -3.0300     4.4010 hc         1 7H7       0.015367
     51 H25          4.8920    -4.6270     3.6530 hc         1 7H7       0.015367
@<TRIPOS>BOND
     1     1     2 1   
     2     1    28 1   
     3     1    29 1   
     4     1    30 1   
     5     2     3 1   
     6     2     4 1   
     7     3    31 1   
     8     3    32 1   
     9     3    33 1   
    10     4     5 1   
    11     4    11 1   
    12     4    34 1   
    13     5     6 ar  
    14     5    10 ar  
    15     6     7 ar  
    16     6    35 1   
    17     7     8 ar  
    18     7    36 1   
    19     8     9 ar  
    20     8    37 1   
    21     9    10 ar  
    22     9    38 1   
    23    10    39 1   
    24    11    12 1   
    25    11    13 1   
    26    11    40 1   
    27    12    41 1   
    28    12    42 1   
    29    12    43 1   
    30    13    14 1   
    31    13    44 1   
    32    14    15 1   
    33    14    23 2   
    34    15    16 ar  
    35    15    20 ar  
    36    16    17 ar  
    37    16    45 1   
    38    17    18 ar  
    39    17    46 1   
    40    18    19 ar  
    41    18    47 1   
    42    19    20 ar  
    43    19    48 1   
    44    20    21 1   
    45    21    22 1   
    46    21    24 2   
    47    22    23 1   
    48    22    26 1   
    49    24    25 1   
    50    25    26 2   
    51    26    27 1   
    52    27    49 1   
    53    27    50 1   
    54    27    51 1   
@<TRIPOS>SUBSTRUCTURE
     1 7H7         1 TEMP              0 ****  ****    0 ROOT
