@<TRIPOS>MOLECULE
molecule
   51    54     1     0     0
SMALL
bcc


@<TRIPOS>ATOM
      1 C14          0.0000     0.0000     0.0000 c3         1 7H7       0.143100
      2 N5           1.4690     0.0000     0.0000 n3         1 7H7      -0.719600
      3 C13          1.9960     0.0000     1.3710 c3         1 7H7       0.143100
      4 C12          1.9960    -1.1370    -0.7670 c3         1 7H7       0.204800
      5 C15          3.3030    -0.7470    -1.4070 ca         1 7H7      -0.077300
      6 C20          3.7270    -1.3860    -2.5570 ca         1 7H7      -0.114500
      7 C19          4.9270    -1.0300    -3.1440 ca         1 7H7      -0.130500
      8 C18          5.7020    -0.0340    -2.5820 ca         1 7H7      -0.125000
      9 C17          5.2790     0.6060    -1.4320 ca         1 7H7      -0.130500
     10 C16          4.0770     0.2520    -0.8470 ca         1 7H7      -0.114500
     11 C1           2.2210    -2.3230     0.1710 c3         1 7H7       0.203500
     12 C            2.7820    -3.5030    -0.6250 c3         1 7H7      -0.109100
     13 N            0.9470    -2.7090     0.7860 nu         1 7H7      -0.904900
     14 C2           0.9320    -3.2840     2.0480 cc         1 7H7       0.688200
     15 C11         -0.3450    -3.6740     2.6570 ca         1 7H7      -0.175300
     16 C10         -1.5600    -3.4830     1.9990 ca         1 7H7      -0.102000
     17 C9          -2.7330    -3.8660     2.6110 ca         1 7H7      -0.126000
     18 C8          -2.7200    -4.4380     3.8770 ca         1 7H7      -0.105000
     19 C7          -1.5320    -4.6350     4.5450 ca         1 7H7      -0.094000
     20 C6          -0.3330    -4.2570     3.9440 ca         1 7H7       0.045000
     21 C5           0.9620    -4.4420     4.6070 cc         1 7H7      -0.133300
     22 N2           2.1030    -4.0470     3.9600 na         1 7H7       0.100300
     23 N1           2.0540    -3.4790     2.6870 nd         1 7H7      -0.587800
     24 N4           1.3270    -4.9380     5.7720 nd         1 7H7      -0.068000
     25 N3           2.6080    -4.8730     5.8790 nd         1 7H7      -0.377700
     26 C3           3.1230    -4.3380     4.8020 cc         1 7H7       0.358800
     27 C4           4.5860    -4.0900     4.5430 c3         1 7H7      -0.082400
     28 H1          -0.3610    -0.6860    -0.7560 h1         1 7H7       0.037533
     29 H2          -0.3610     0.9980    -0.2170 h1         1 7H7       0.037533
     30 H3          -0.3610    -0.3110     0.9730 h1         1 7H7       0.037533
     31 H5           2.1420     1.0210     1.7010 h1         1 7H7       0.037533
     32 H6           2.9420    -0.5260     1.3950 h1         1 7H7       0.037533
     33 H7           1.2910    -0.4940     2.0290 h1         1 7H7       0.037533
     34 H8           1.2850    -1.4140    -1.5360 h1         1 7H7       0.064700
     35 H9           3.1190    -2.1670    -2.9980 ha         1 7H7       0.136500
     36 H10          5.2590    -1.5310    -4.0460 ha         1 7H7       0.130500
     37 H11          6.6430     0.2440    -3.0410 ha         1 7H7       0.129000
     38 H12          5.8860     1.3880    -0.9920 ha         1 7H7       0.130500
     39 H13          3.7450     0.7540     0.0540 ha         1 7H7       0.136500
     40 H14          2.9250    -2.0430     0.9460 h1         1 7H7       0.098700
     41 H15          2.4040    -3.4670    -1.6390 hc         1 7H7       0.046033
     42 H16          2.4750    -4.4320    -0.1590 hc         1 7H7       0.046033
     43 H17          3.8640    -3.4470    -0.6400 hc         1 7H7       0.046033
     44 H18          0.0950    -2.6150     0.2690 hn         1 7H7       0.451800
     45 H19         -1.5800    -3.0380     1.0120 ha         1 7H7       0.128000
     46 H20         -3.6770    -3.7180     2.1000 ha         1 7H7       0.137000
     47 H21         -3.6530    -4.7320     4.3420 ha         1 7H7       0.141000
     48 H22         -1.5300    -5.0820     5.5320 ha         1 7H7       0.164000
     49 H23          5.1660    -4.4370     5.3900 hc         1 7H7       0.059700
     50 H24          4.7540    -3.0300     4.4010 hc         1 7H7       0.059700
     51 H25          4.8920    -4.6270     3.6530 hc         1 7H7       0.059700
@<TRIPOS>BOND
     1    18    17 ar  
     2    18    19 ar  
     3    17    16 ar  
     4    19    20 ar  
     5    16    15 ar  
     6    20    15 ar  
     7    20    21 1   
     8    15    14 1   
     9    21    24 2   
    10    21    22 1   
    11    14    13 1   
    12    14    23 2   
    13    13    11 1   
    14    24    25 1   
    15    12    11 1   
    16    22    23 1   
    17    22    26 1   
    18    11     4 1   
    19    25    26 2   
    20     4     2 1   
    21     4     5 1   
    22     2     1 1   
    23     2     3 1   
    24    26    27 1   
    25    10     5 ar  
    26    10     9 ar  
    27     5     6 ar  
    28     9     8 ar  
    29     6     7 ar  
    30     8     7 ar  
    31     1    28 1   
    32     1    29 1   
    33     1    30 1   
    34     3    31 1   
    35     3    32 1   
    36     3    33 1   
    37     4    34 1   
    38     6    35 1   
    39     7    36 1   
    40     8    37 1   
    41     9    38 1   
    42    10    39 1   
    43    11    40 1   
    44    12    41 1   
    45    12    42 1   
    46    12    43 1   
    47    13    44 1   
    48    16    45 1   
    49    17    46 1   
    50    18    47 1   
    51    19    48 1   
    52    27    49 1   
    53    27    50 1   
    54    27    51 1   
@<TRIPOS>SUBSTRUCTURE
     1 7H7         1 TEMP              0 ****  ****    0 ROOT
