@<TRIPOS>MOLECULE
7H8
   73    77     1     0     0
SMALL
bcc


@<TRIPOS>ATOM
      1 C1           0.0000     0.0000     0.0000 c3         1 7H8      -0.003100
      2 C2           1.5300     0.0000     0.0000 c3         1 7H8      -0.057500
      3 C3           2.0400     0.0000     1.4420 c3         1 7H8       0.134800
      4 N4           3.5090     0.0190     1.4390 n3         1 7H8      -0.497600
      5 C5           4.0400    -0.0370     2.8080 c3         1 7H8       0.045800
      6 C6           3.9100    -1.4420     3.3390 c          1 7H8       0.576100
      7 C10          5.0510    -2.9180     6.5320 c3         1 7H8      -0.114300
      8 C11          4.0670    -3.3540     7.6200 c3         1 7H8       0.014900
      9 C12          6.3500    -3.7200     6.6360 c3         1 7H8       0.014900
     10 C13          5.3340    -1.4350     6.6400 ca         1 7H8       0.350600
     11 C15          6.0360     0.5740     7.5280 ca         1 7H8       0.394200
     12 C16          5.6530     1.2580     6.3880 ca         1 7H8      -0.165600
     13 C19          8.2790     3.1240     6.7610 ca         1 7H8      -0.101500
     14 C21          9.8310     3.5900     4.9990 ca         1 7H8      -0.088000
     15 C22          8.8070     3.5040     4.0730 ca         1 7H8      -0.091500
     16 C23          7.5190     3.2330     4.4930 ca         1 7H8      -0.101500
     17 C24          5.0900     0.5580     5.3380 ca         1 7H8      -0.140000
     18 C25          4.9240    -0.8250     5.4650 ca         1 7H8      -0.214700
     19 C26          4.0140     1.2020     0.7270 c3         1 7H8       0.089500
     20 C27          5.5440     1.1730     0.7100 c3         1 7H8       0.072000
     21 C31          6.8780     3.8910    -1.5240 c3         1 7H8      -0.107400
     22 O7           3.3750    -2.2970     2.6660 o          1 7H8      -0.624100
     23 N8           4.3880    -1.7460     4.5620 n          1 7H8       0.046000
     24 C9           4.4220    -3.0930     5.1400 c3         1 7H8       0.039000
     25 N14          5.8680    -0.7290     7.6200 nb         1 7H8      -0.502000
     26 C18          7.2540     3.0440     5.8360 ca         1 7H8      -0.095300
     27 C20          9.5670     3.4000     6.3420 ca         1 7H8      -0.091500
     28 N28          6.0490     2.3950     0.0780 n          1 7H8      -0.195800
     29 C29          6.2440     3.6700     0.7780 c3         1 7H8       0.043000
     30 C30          7.1710     4.5030    -0.1340 c3         1 7H8      -0.024400
     31 C32          6.3920     2.4920    -1.2180 c          1 7H8       0.631500
     32 O33          6.3210     1.5890    -2.0250 o          1 7H8      -0.664500
     33 C34          3.4880     1.1920    -0.7100 c3         1 7H8      -0.032200
     34 N35          2.0190     1.1980    -0.6930 ny         1 7H8       0.035000
     35 H37         -0.3610    -0.0250    -1.0210 hc         1 7H8       0.036367
     36 H38         -0.3610    -0.8720     0.5320 hc         1 7H8       0.036367
     37 H36         -0.3610     0.8970     0.4890 hc         1 7H8       0.036367
     38 H39          1.8950    -0.8830    -0.5100 hx         1 7H8       0.109700
     39 H41          1.6930    -0.8930     1.9470 h1         1 7H8       0.055200
     40 H40          1.6700     0.8790     1.9560 h1         1 7H8       0.055200
     41 H43          3.4810     0.6420     3.4400 h1         1 7H8       0.054200
     42 H42          5.0840     0.2520     2.8030 h1         1 7H8       0.054200
     43 H46          4.5270    -3.2340     8.5930 hc         1 7H8       0.015367
     44 H47          3.1740    -2.7430     7.5650 hc         1 7H8       0.015367
     45 H48          3.8020    -4.3940     7.4710 hc         1 7H8       0.015367
     46 H51          6.7780    -3.5880     7.6220 hc         1 7H8       0.015367
     47 H49          7.0510    -3.3710     5.8880 hc         1 7H8       0.015367
     48 H50          6.1400    -4.7700     6.4710 hc         1 7H8       0.015367
     49 H52          6.4780     1.1170     8.3550 h4         1 7H8      -0.005900
     50 H57         10.8410     3.8040     4.6710 ha         1 7H8       0.110000
     51 H58          9.0150     3.6520     3.0210 ha         1 7H8       0.105500
     52 H59          6.7160     3.1680     3.7690 ha         1 7H8       0.097500
     53 H60          4.7820     1.0700     4.4340 ha         1 7H8       0.115000
     54 H61          3.6700     2.0970     1.2300 h1         1 7H8       0.019700
     55 H62          5.9160     1.1120     1.7260 h1         1 7H8       0.059200
     56 H63          5.8830     0.3100     0.1490 h1         1 7H8       0.059200
     57 H68          7.7830     3.8540    -2.1190 hc         1 7H8       0.051700
     58 H69          6.1060     4.4570    -2.0310 hc         1 7H8       0.051700
     59 H45          3.4120    -3.4700     5.2420 h1         1 7H8       0.045200
     60 H44          5.0540    -3.7320     4.5340 h1         1 7H8       0.045200
     61 H56         10.3700     3.4650     7.0660 ha         1 7H8       0.105500
     62 H65          6.7180     3.5000     1.7370 h1         1 7H8       0.020700
     63 H64          5.2940     4.1750     0.9070 h1         1 7H8       0.020700
     64 H66          8.2090     4.3600     0.1390 hc         1 7H8       0.039200
     65 H67          6.8960     5.5500    -0.1090 hc         1 7H8       0.039200
     66 H70          3.8460     2.0720    -1.2300 hx         1 7H8       0.098200
     67 H71          3.8380     0.3000    -1.2150 hx         1 7H8       0.098200
     68 H73          1.6770     1.2010    -1.6330 hn         1 7H8       0.237800
     69 H72          1.6960     2.0150    -0.2130 hn         1 7H8       0.237800
     70 C17          5.8480     2.7490     6.2930 c3         1 7H8       0.097200
     71 H55          8.0710     2.9750     7.8140 ha         1 7H8       0.097500
     72 H54          5.6830     3.1980     7.2650 hc         1 7H8       0.023700
     73 H53          5.1430     3.1610     5.5810 hc         1 7H8       0.023700
@<TRIPOS>BOND
     1     1     2 1   
     2     1    35 1   
     3     1    36 1   
     4     1    37 1   
     5     2     3 1   
     6     2    34 1   
     7     2    38 1   
     8     3     4 1   
     9     3    39 1   
    10     3    40 1   
    11     4     5 1   
    12     4    19 1   
    13     5     6 1   
    14     5    41 1   
    15     5    42 1   
    16     6    22 2   
    17     6    23 1   
    18     7     8 1   
    19     7     9 1   
    20     7    10 1   
    21     7    24 1   
    22     8    43 1   
    23     8    44 1   
    24     8    45 1   
    25     9    46 1   
    26     9    47 1   
    27     9    48 1   
    28    10    18 ar  
    29    10    25 ar  
    30    11    12 ar  
    31    11    25 ar  
    32    11    49 1   
    33    12    17 ar  
    34    12    70 1   
    35    13    26 ar  
    36    13    27 ar  
    37    13    71 1   
    38    14    15 ar  
    39    14    27 ar  
    40    14    50 1   
    41    15    16 ar  
    42    15    51 1   
    43    16    26 ar  
    44    16    52 1   
    45    17    18 ar  
    46    17    53 1   
    47    18    23 1   
    48    19    20 1   
    49    19    33 1   
    50    19    54 1   
    51    20    28 1   
    52    20    55 1   
    53    20    56 1   
    54    21    30 1   
    55    21    31 1   
    56    21    57 1   
    57    21    58 1   
    58    23    24 1   
    59    24    59 1   
    60    24    60 1   
    61    26    70 1   
    62    27    61 1   
    63    28    29 1   
    64    28    31 1   
    65    29    30 1   
    66    29    62 1   
    67    29    63 1   
    68    30    64 1   
    69    30    65 1   
    70    31    32 2   
    71    33    34 1   
    72    33    66 1   
    73    33    67 1   
    74    34    68 1   
    75    34    69 1   
    76    70    72 1   
    77    70    73 1   
@<TRIPOS>SUBSTRUCTURE
     1 7H8         1 TEMP              0 ****  ****    0 ROOT
