@<TRIPOS>MOLECULE
7H9
   78    82     1     0     0
SMALL
bcc


@<TRIPOS>ATOM
      1 C1           0.0000     0.0000     0.0000 c3         1 7H9      -0.003100
      2 C2           1.5300     0.0000     0.0000 c3         1 7H9      -0.053500
      3 C3           2.0400     0.0000     1.4430 c3         1 7H9       0.100800
      4 N4           3.5100     0.0190     1.4400 n3         1 7H9      -0.509600
      5 C5           4.0400    -0.0370     2.8090 c3         1 7H9       0.001800
      6 C6           3.4680     1.0990     3.6160 c          1 7H9       0.577100
      7 C10          3.4620     1.6890     7.2660 c3         1 7H9      -0.114300
      8 C11          4.2990     2.7960     7.9090 c3         1 7H9       0.014900
      9 C12          2.2470     1.3660     8.1390 c3         1 7H9       0.014900
     10 C13          4.3030     0.4490     7.0520 ca         1 7H9       0.353600
     11 C15          5.6320    -1.3750     7.5330 ca         1 7H9       0.399200
     12 C16          5.7200    -1.7130     6.1950 ca         1 7H9      -0.169600
     13 C19          5.5450    -4.8200     7.0730 ca         1 7H9      -0.071000
     14 C21          4.0790    -6.4160     6.0530 ca         1 7H9       0.115900
     15 C23          4.1840    -5.7430     4.8490 ca         1 7H9      -0.126000
     16 C24          4.9740    -4.6130     4.7560 ca         1 7H9      -0.071000
     17 C25          5.0690    -0.9340     5.2560 ca         1 7H9      -0.129000
     18 C26          4.3420     0.1780     5.6940 ca         1 7H9      -0.224700
     19 C27          4.0150     1.2020     0.7280 c3         1 7H9       0.076500
     20 C28          5.5450     1.1730     0.7110 c3         1 7H9       0.142800
     21 C31          6.4440     3.2190     3.7440 c3         1 7H9       0.212400
     22 C35          7.5000    -0.4830     1.9640 c3         1 7H9      -0.007100
     23 C36          3.4880     1.1920    -0.7100 c3         1 7H9      -0.023200
     24 O7           2.8790     2.0020     3.0610 o          1 7H9      -0.704100
     25 N8           3.6090     1.1110     4.9570 n          1 7H9       0.066000
     26 C9           3.0150     2.1040     5.8560 c3         1 7H9       0.031000
     27 N14          4.9390    -0.3210     7.9160 nb         1 7H9      -0.506000
     28 C18          5.6540    -4.1510     5.8670 ca         1 7H9      -0.113300
     29 C20          4.7600    -5.9530     7.1660 ca         1 7H9      -0.126000
     30 N29          6.0550     1.4940     2.0510 n3         1 7H9      -0.539600
     31 C30          5.9590     2.9360     2.3190 c3         1 7H9       0.089800
     32 O32          7.7790     2.7280     3.8930 os         1 7H9      -0.392600
     33 C33          7.9100     1.3260     3.6400 c3         1 7H9       0.211400
     34 C34          7.4390     1.0260     2.2130 c3         1 7H9       0.077500
     35 N37          2.0200     1.1980    -0.6930 ny         1 7H9       0.041000
     36 H39         -0.3610    -0.8740     0.5280 hc         1 7H9       0.035367
     37 H40         -0.3610     0.8940     0.4930 hc         1 7H9       0.035367
     38 H38         -0.3610    -0.0200    -1.0210 hc         1 7H9       0.035367
     39 H41          1.8960    -0.8830    -0.5100 hx         1 7H9       0.092700
     40 H43          1.6690     0.8790     1.9560 h1         1 7H9       0.069200
     41 H42          1.6920    -0.8930     1.9470 h1         1 7H9       0.069200
     42 H44          5.1200     0.0470     2.7820 h1         1 7H9       0.099200
     43 H45          3.7630    -0.9800     3.2650 h1         1 7H9       0.099200
     44 H48          4.4880     2.5500     8.9470 hc         1 7H9       0.015700
     45 H49          3.7600     3.7350     7.8540 hc         1 7H9       0.015700
     46 H50          5.2410     2.8900     7.3830 hc         1 7H9       0.015700
     47 H53          2.5780     1.0960     9.1340 hc         1 7H9       0.015700
     48 H51          1.6030     2.2350     8.1960 hc         1 7H9       0.015700
     49 H52          1.6990     0.5390     7.7030 hc         1 7H9       0.015700
     50 H54          6.1390    -1.9810     8.2740 h4         1 7H9      -0.004900
     51 H57          6.0780    -4.4570     7.9430 ha         1 7H9       0.106000
     52 H59          3.6510    -6.1040     3.9780 ha         1 7H9       0.123000
     53 H60          5.0580    -4.0880     3.8120 ha         1 7H9       0.106000
     54 H61          5.1230    -1.1780     4.2020 ha         1 7H9       0.133000
     55 H62          3.6720     2.0980     1.2300 h1         1 7H9       0.091700
     56 H64          5.8840     0.1850     0.4220 h1         1 7H9       0.035700
     57 H63          5.9120     1.9030    -0.0000 h1         1 7H9       0.035700
     58 H67          6.4300     4.2870     3.9240 h1         1 7H9       0.018700
     59 H68          5.7940     2.7190     4.4520 h1         1 7H9       0.018700
     60 H73          7.5460    -0.6710     0.8980 hc         1 7H9       0.016033
     61 H74          6.6160    -0.9530     2.3760 hc         1 7H9       0.016033
     62 H72          8.3830    -0.8920     2.4410 hc         1 7H9       0.016033
     63 H75          3.8380     0.2990    -1.2150 hx         1 7H9       0.079700
     64 H76          3.8460     2.0720    -1.2300 hx         1 7H9       0.079700
     65 H47          3.4090     3.0860     5.6240 h1         1 7H9       0.043200
     66 H46          1.9350     2.0550     5.7880 h1         1 7H9       0.043200
     67 H58          4.6760    -6.4780     8.1100 ha         1 7H9       0.123000
     68 H66          4.9280     3.2530     2.2200 h1         1 7H9       0.029700
     69 H65          6.5780     3.4770     1.6140 h1         1 7H9       0.029700
     70 H70          8.9480     1.0360     3.7450 h1         1 7H9       0.022700
     71 H69          7.3010     0.7740     4.3450 h1         1 7H9       0.022700
     72 H71          8.0790     1.5410     1.5070 h1         1 7H9       0.034700
     73 H78          1.6770     1.2020    -1.6330 hn         1 7H9       0.240300
     74 H77          1.6970     2.0150    -0.2120 hn         1 7H9       0.240300
     75 C17          6.5150    -2.9190     5.7650 c3         1 7H9       0.097200
     76 F22          3.3110    -7.5240     6.1440 f          1 7H9      -0.121900
     77 H55          6.8400    -2.7900     4.7400 hc         1 7H9       0.026700
     78 H56          7.3800    -3.0290     6.4080 hc         1 7H9       0.026700
@<TRIPOS>BOND
     1     1     2 1   
     2     1    36 1   
     3     1    37 1   
     4     1    38 1   
     5     2     3 1   
     6     2    35 1   
     7     2    39 1   
     8     3     4 1   
     9     3    40 1   
    10     3    41 1   
    11     4     5 1   
    12     4    19 1   
    13     5     6 1   
    14     5    42 1   
    15     5    43 1   
    16     6    24 2   
    17     6    25 1   
    18     7     8 1   
    19     7     9 1   
    20     7    10 1   
    21     7    26 1   
    22     8    44 1   
    23     8    45 1   
    24     8    46 1   
    25     9    47 1   
    26     9    48 1   
    27     9    49 1   
    28    10    18 ar  
    29    10    27 ar  
    30    11    12 ar  
    31    11    27 ar  
    32    11    50 1   
    33    12    17 ar  
    34    12    75 1   
    35    13    28 ar  
    36    13    29 ar  
    37    13    51 1   
    38    14    15 ar  
    39    14    29 ar  
    40    14    76 1   
    41    15    16 ar  
    42    15    52 1   
    43    16    28 ar  
    44    16    53 1   
    45    17    18 ar  
    46    17    54 1   
    47    18    25 1   
    48    19    20 1   
    49    19    23 1   
    50    19    55 1   
    51    20    30 1   
    52    20    56 1   
    53    20    57 1   
    54    21    31 1   
    55    21    32 1   
    56    21    58 1   
    57    21    59 1   
    58    22    34 1   
    59    22    60 1   
    60    22    61 1   
    61    22    62 1   
    62    23    35 1   
    63    23    63 1   
    64    23    64 1   
    65    25    26 1   
    66    26    65 1   
    67    26    66 1   
    68    28    75 1   
    69    29    67 1   
    70    30    31 1   
    71    30    34 1   
    72    31    68 1   
    73    31    69 1   
    74    32    33 1   
    75    33    34 1   
    76    33    70 1   
    77    33    71 1   
    78    34    72 1   
    79    35    73 1   
    80    35    74 1   
    81    75    77 1   
    82    75    78 1   
@<TRIPOS>SUBSTRUCTURE
     1 7H9         1 TEMP              0 ****  ****    0 ROOT
