@<TRIPOS>MOLECULE
molecule
   72    76     1     0     0
SMALL
bcc


@<TRIPOS>ATOM
      1 O3           0.0000     0.0000     0.0000 o          1 7HC      -0.609500
      2 C9           3.2370    -1.5190    -6.5520 c3         1 7HC       0.115700
      3 C8           1.9400    -0.5230    -4.7450 c          1 7HC       0.670100
      4 O1           2.5340     0.5170    -4.9310 o          1 7HC      -0.595100
      5 C12          4.2390    -2.2720    -9.2000 c3         1 7HC       0.144100
      6 C13          3.6730    -0.8760    -8.9260 c3         1 7HC      -0.088400
      7 C11          4.8680    -2.8260    -7.9200 c3         1 7HC      -0.088400
      8 C10          3.8030    -2.9130    -6.8240 c3         1 7HC      -0.094900
      9 N1           0.4370     0.7510    -3.2740 n7         1 7HC      -0.759200
     10 C14          2.6080    -0.9640    -7.8320 c3         1 7HC      -0.094900
     11 C15          1.4950    -1.2070    -2.3740 c3         1 7HC      -0.021400
     12 O2           5.2340    -2.1900   -10.2220 oh         1 7HC      -0.603800
     13 C7           0.8900    -0.6100    -3.6660 c3         1 7HC       0.074500
     14 C5           0.9490     2.3430    -1.4450 c3         1 7HC      -0.086400
     15 C4          -0.3390     3.2900    -3.3660 c3         1 7HC      -0.084100
     16 C2           0.6830     3.6030    -2.2710 c3         1 7HC      -0.063000
     17 C1           0.1340     4.7040    -1.3610 c3         1 7HC      -0.084100
     18 C25          4.7000     0.0000     0.7790 ca         1 7HC      -0.154000
     19 C26          5.8400     0.0000     0.0000 ca         1 7HC       0.063400
     20 C24          3.4430     0.0030     0.1800 ca         1 7HC       0.064600
     21 N2           2.2170    -1.6020    -5.5030 ns         1 7HC      -0.584900
     22 C23          1.1970     0.0020    -0.1950 c          1 7HC       0.729500
     23 C22          1.8900     0.0100    -1.5310 c3         1 7HC      -0.131700
     24 C21          0.8480    -3.1890    -0.9860 ca         1 7HC       0.146900
     25 C19         -1.4230    -3.5550    -0.3140 ca         1 7HC      -0.090000
     26 C20         -0.0980    -3.9470    -0.3150 ca         1 7HC      -0.017600
     27 C18         -1.8050    -2.4050    -0.9820 ca         1 7HC      -0.128000
     28 C16          0.4660    -2.0360    -1.6500 ca         1 7HC      -0.139300
     29 C28          4.4970     0.0060    -1.9820 ca         1 7HC      -0.063000
     30 C29          3.3580     0.0060    -1.2090 ca         1 7HC      -0.130300
     31 N3           2.1650    -0.0000     0.7430 ns         1 7HC      -0.456100
     32 C17         -0.8610    -1.6460    -1.6470 ca         1 7HC      -0.060000
     33 C27          5.7430     0.0030    -1.3800 ca         1 7HC      -0.146000
     34 C3           1.9890     4.0780    -2.9130 c3         1 7HC      -0.084100
     35 C6           1.4990     1.2440    -2.3560 c3         1 7HC       0.180500
     36 F            2.1440    -3.5720    -0.9880 f          1 7HC      -0.126900
     37 Cl1          0.3810    -5.3900     0.5230 cl         1 7HC      -0.087400
     38 H1           4.0370    -0.8630    -6.2320 h1         1 7HC       0.081700
     39 H2           3.4390    -2.9280    -9.5210 h1         1 7HC       0.029700
     40 H3           3.2260    -0.4850    -9.8330 hc         1 7HC       0.056450
     41 H4           4.4720    -0.2210    -8.6000 hc         1 7HC       0.056450
     42 H5           5.6650    -2.1680    -7.5960 hc         1 7HC       0.056450
     43 H6           5.2660    -3.8150    -8.1150 hc         1 7HC       0.056450
     44 H7           4.2510    -3.3030    -5.9180 hc         1 7HC       0.050450
     45 H8           3.0050    -3.5690    -7.1500 hc         1 7HC       0.050450
     46 H9          -0.4290     0.6840    -2.7780 hn         1 7HC       0.363800
     47 H11          1.8120    -1.6230    -8.1560 hc         1 7HC       0.050450
     48 H12          2.2090     0.0240    -7.6370 hc         1 7HC       0.050450
     49 H13          2.3690    -1.8010    -2.6090 hc         1 7HC       0.089700
     50 H14          4.9790    -2.7270   -10.9530 ho         1 7HC       0.401000
     51 H15          0.0480    -1.2050    -3.9980 h1         1 7HC       0.078700
     52 H16          0.0250     2.0080    -0.9900 hc         1 7HC       0.056200
     53 H17          1.6730     2.5660    -0.6700 hc         1 7HC       0.056200
     54 H18         -0.7850     4.2120    -3.7180 hc         1 7HC       0.037256
     55 H19          0.1560     2.7900    -4.1900 hc         1 7HC       0.037256
     56 H20         -1.1120     2.6450    -2.9640 hc         1 7HC       0.037256
     57 H21         -0.7890     4.3680    -0.9050 hc         1 7HC       0.037256
     58 H22         -0.0560     5.5950    -1.9470 hc         1 7HC       0.037256
     59 H23          0.8590     4.9280    -0.5880 hc         1 7HC       0.037256
     60 H24          4.7840    -0.0030     1.8590 ha         1 7HC       0.147000
     61 H25          1.7260    -2.4610    -5.3510 hn         1 7HC       0.314500
     62 H26         -2.1640    -4.1480     0.2090 ha         1 7HC       0.151000
     63 H27         -2.8440    -2.0980    -0.9810 ha         1 7HC       0.145000
     64 H28          4.4170     0.0090    -3.0630 ha         1 7HC       0.156000
     65 H29          1.9880    -0.0040     1.7280 hn         1 7HC       0.340500
     66 H30         -1.1610    -0.7460    -2.1700 ha         1 7HC       0.144000
     67 H31          6.6400     0.0030    -1.9880 ha         1 7HC       0.151000
     68 H32          2.1370     3.5630    -3.8550 hc         1 7HC       0.037256
     69 H33          2.8170     3.8620    -2.2490 hc         1 7HC       0.037256
     70 H34          1.9370     5.1450    -3.0900 hc         1 7HC       0.037256
     71 H35          2.3500     1.6030    -2.9220 h1         1 7HC       0.117700
     72 Cl2          7.4030    -0.0010     0.7560 cl         1 7HC      -0.099400
@<TRIPOS>BOND
     1    17    16 1   
     2    18    20 ar  
     3    18    19 ar  
     4    31    20 1   
     5    31    22 1   
     6    72    19 1   
     7    20    30 ar  
     8     1    22 2   
     9    19    33 ar  
    10    22    23 1   
    11    14    16 1   
    12    14    35 1   
    13    16    15 1   
    14    16    34 1   
    15    30    23 1   
    16    30    29 ar  
    17    33    29 ar  
    18    23    35 1   
    19    23    11 1   
    20    35     9 1   
    21     9    13 1   
    22    27    32 ar  
    23    27    25 ar  
    24    32    28 ar  
    25    25    26 ar  
    26    11    28 1   
    27    11    13 1   
    28    28    24 ar  
    29    13     3 1   
    30    26    24 ar  
    31    26    37 1   
    32    24    36 1   
    33     3    21 1   
    34     3     4 2   
    35    21     2 1   
    36    10     2 1   
    37    10     6 1   
    38     2     8 1   
    39     8     7 1   
    40     6     5 1   
    41     5     7 1   
    42     5    12 1   
    43     2    38 1   
    44     5    39 1   
    45     6    40 1   
    46     6    41 1   
    47     7    42 1   
    48     7    43 1   
    49     8    44 1   
    50     8    45 1   
    51     9    46 1   
    52    10    47 1   
    53    10    48 1   
    54    11    49 1   
    55    12    50 1   
    56    13    51 1   
    57    14    52 1   
    58    14    53 1   
    59    15    54 1   
    60    15    55 1   
    61    15    56 1   
    62    17    57 1   
    63    17    58 1   
    64    17    59 1   
    65    18    60 1   
    66    21    61 1   
    67    25    62 1   
    68    27    63 1   
    69    29    64 1   
    70    31    65 1   
    71    32    66 1   
    72    33    67 1   
    73    34    68 1   
    74    34    69 1   
    75    34    70 1   
    76    35    71 1   
@<TRIPOS>SUBSTRUCTURE
     1 7HC         1 TEMP              0 ****  ****    0 ROOT
