@<TRIPOS>MOLECULE
7HD
   46    50     1     0     0
SMALL
bcc


@<TRIPOS>ATOM
      1 C01         0.4020    1.1970   -0.3950 c3        1 7HD     -0.142400
      2 C02         1.6420    0.5240   -0.0160 cc        1 7HD      0.277000
      3 C03         2.2400    0.1480    1.1700 cd        1 7HD     -0.361600
      4 C04         3.4860   -0.4960    0.7570 cd        1 7HD      0.281600
      5 C05         4.4720   -1.0620    1.7230 c3        1 7HD      0.033000
      6 N06         5.5030   -1.8970    1.1430 na        1 7HD      0.083400
      7 C07         6.7710   -1.4330    0.7640 cc        1 7HD     -0.087300
      8 C08         7.4050   -2.4960    0.1000 cd        1 7HD     -0.230300
      9 C09         8.7150   -2.5510   -0.4840 ca        1 7HD      0.058000
     10 C10         9.8830   -2.0840    0.1290 ca        1 7HD     -0.098900
     11 CL          9.8570   -1.3760    1.6710 cl        1 7HD     -0.084400
     12 C12        11.1420   -2.1980   -0.5290 ca        1 7HD      0.393200
     13 N13        11.3450   -2.7290   -1.7350 nb        1 7HD     -0.597000
     14 C14        10.2300   -3.1890   -2.3730 ca        1 7HD      0.531300
     15 N15        10.1140   -3.7850   -3.6530 nc        1 7HD     -0.628700
     16 C16         8.7910   -4.0450   -3.8090 cd        1 7HD      0.536400
     17 C17         8.1790   -4.6450   -4.9640 cd        1 7HD     -0.314200
     18 C18         6.8040   -4.8440   -5.1990 cc        1 7HD     -0.121300
     19 N19         6.7010   -5.4550   -6.4460 na        1 7HD      0.101400
     20 C20         5.4550   -5.8300   -7.0720 c3        1 7HD      0.037600
     21 N21         7.9060   -5.6550   -7.0120 nc        1 7HD     -0.517800
     22 C22         8.8440   -5.1770   -6.1460 cd        1 7HD      0.380600
     23 C23        10.2990   -5.1990   -6.3810 c3        1 7HD     -0.130400
     24 N24         8.0170   -3.6710   -2.6810 na        1 7HD     -0.272300
     25 C25         8.8990   -3.1110   -1.7630 ca        1 7HD     -0.179500
     26 C26         6.4180   -3.5660    0.1050 cd        1 7HD      0.308200
     27 N27         5.2880   -3.1610    0.7270 nc        1 7HD     -0.495800
     28 N28         3.5680   -0.4750   -0.5880 nc        1 7HD     -0.335300
     29 O29         2.4980    0.1190   -1.0730 os        1 7HD     -0.119100
     30 H011       -0.1010    1.6100    0.5140 hc        1 7HD      0.068700
     31 H012       -0.2890    0.4750   -0.8990 hc        1 7HD      0.068700
     32 H013        0.6150    2.0340   -1.1090 hc        1 7HD      0.068700
     33 H03         1.8920    0.2800    2.1880 ha        1 7HD      0.177000
     34 H051        4.9870   -0.2060    2.2490 h1        1 7HD      0.086200
     35 H052        3.9010   -1.6690    2.4860 h1        1 7HD      0.086200
     36 H07         7.1220   -0.4280    0.9980 h4        1 7HD      0.188000
     37 H26         6.5370   -4.5770   -0.2870 h4        1 7HD      0.047100
     38 H12        12.0530   -1.8260   -0.0210 h4        1 7HD      0.036100
     39 H24         7.0340   -3.6860   -2.6040 hn        1 7HD      0.312700
     40 H18         5.9310   -4.6000   -4.5950 h4        1 7HD      0.175000
     41 H201        4.6110   -5.5500   -6.3910 h1        1 7HD      0.062033
     42 H202        5.4390   -6.9380   -7.2570 h1        1 7HD      0.062033
     43 H203        5.3420   -5.2960   -8.0530 h1        1 7HD      0.062033
     44 H231       10.5580   -5.6870   -7.3530 hc        1 7HD      0.064033
     45 H232       10.8040   -5.7550   -5.5510 hc        1 7HD      0.064033
     46 H233       10.6920   -4.1500   -6.3880 hc        1 7HD      0.064033
@<TRIPOS>BOND
     1    1    2 1
     2    1   30 1
     3    1   31 1
     4    1   32 1
     5    2    3 2
     6    2   29 1
     7    3    4 1
     8    3   33 1
     9    4    5 1
    10    4   28 2
    11    5    6 1
    12    5   34 1
    13    5   35 1
    14    6    7 1
    15    6   27 1
    16    7    8 2
    17    7   36 1
    18    8    9 1
    19    8   26 1
    20    9   10 ar
    21    9   25 ar
    22   10   11 1
    23   10   12 ar
    24   12   13 ar
    25   12   38 1
    26   13   14 ar
    27   14   15 1
    28   14   25 ar
    29   15   16 2
    30   16   17 1
    31   16   24 1
    32   17   18 2
    33   17   22 1
    34   18   19 1
    35   18   40 1
    36   19   20 1
    37   19   21 1
    38   20   41 1
    39   20   42 1
    40   20   43 1
    41   21   22 2
    42   22   23 1
    43   23   44 1
    44   23   45 1
    45   23   46 1
    46   24   25 1
    47   24   39 1
    48   26   27 2
    49   26   37 1
    50   28   29 1
@<TRIPOS>SUBSTRUCTURE
     1 7HD         1 TEMP              0 ****  ****    0 ROOT
