@<TRIPOS>MOLECULE
molecule
   67    70     1     0     0
SMALL
bcc


@<TRIPOS>ATOM
      1 CAP          0.0000     0.0000     0.0000 ca         1 7HF      -0.141000
      2 CAK          1.3840     0.0000     0.0000 ca         1 7HF       0.099900
      3 FBF          2.0600    -0.0000    -1.1700 f          1 7HF      -0.127900
      4 CAQ          2.0760     0.0000     1.2010 ca         1 7HF       0.096900
      5 FBG          3.4280    -0.0000     1.2040 f          1 7HF      -0.127900
      6 CAD          1.3820     0.0000     2.3980 ca         1 7HF      -0.137000
      7 CAA         -0.0010     0.0010     2.3950 ca         1 7HF      -0.113000
      8 CAN         -0.6910     0.0010     1.1970 ca         1 7HF      -0.067300
      9 CBJ         -2.1970     0.0020     1.1960 c3         1 7HF      -0.041400
     10 CAZ         -2.7460     1.2380     1.9520 c3         1 7HF       0.150800
     11 NAB         -4.0990     0.8030     2.3800 n3         1 7HF      -0.709600
     12 CBD         -4.5890     1.6250     3.4950 c3         1 7HF       0.156800
     13 CAW         -6.0670     1.3180     3.7440 c3         1 7HF       0.138400
     14 OAM         -6.2060    -0.0350     4.1820 os         1 7HF      -0.432600
     15 CBI         -7.5560    -0.4250     4.4440 c3         1 7HF       0.128700
     16 CAR         -3.9580    -0.6130     2.7870 c3         1 7HF       0.134800
     17 CBH         -2.7460    -1.1810     2.0270 c3         1 7HF       0.127700
     18 NAJ         -3.1660    -2.2710     1.1430 ns         1 7HF      -0.590900
     19 CAS         -3.2480    -3.5300     1.6170 c          1 7HF       0.783100
     20 OBA         -2.9740    -3.7610     2.7790 o          1 7HF      -0.627100
     21 NAO         -3.6350    -4.5330     0.8040 ns         1 7HF      -0.491100
     22 CAV         -3.6370    -5.8480     1.2700 cc         1 7HF       0.104300
     23 CAG         -4.7340    -6.6250     1.4800 cd         1 7HF      -0.293600
     24 CBE         -6.1660    -6.2180     1.2510 c3         1 7HF      -0.001800
     25 CAX         -4.2940    -7.8700     1.9490 cd         1 7HF       0.586600
     26 OAI         -5.0890    -8.9240     2.2750 os         1 7HF      -0.423100
     27 CAL         -4.4380   -10.1100     2.7340 c3         1 7HF       0.137400
     28 CAF         -5.4880   -11.1780     3.0500 c3         1 7HF      -0.095100
     29 NAT         -2.9840    -7.8470     2.0180 nc         1 7HF      -0.571800
     30 NAY         -2.5410    -6.5890     1.5920 na         1 7HF       0.153300
     31 CAE         -1.2090    -6.1650     1.5180 ca         1 7HF       0.047800
     32 CAU         -0.2940    -6.5710     2.4820 ca         1 7HF      -0.129000
     33 CAH          1.0190    -6.1520     2.4060 ca         1 7HF      -0.114500
     34 CBB          1.4250    -5.3280     1.3730 ca         1 7HF      -0.134000
     35 CBC          0.5180    -4.9210     0.4120 ca         1 7HF      -0.114500
     36 CAC         -0.7960    -5.3430     0.4780 ca         1 7HF      -0.129000
     37 H1          -0.5420    -0.0000    -0.9380 ha         1 7HF       0.150000
     38 H2           1.9220     0.0000     3.3370 ha         1 7HF       0.155000
     39 H3          -0.5440     0.0020     3.3330 ha         1 7HF       0.146000
     40 H4          -2.5870    -0.0300     0.1860 hc         1 7HF       0.072700
     41 H5          -2.8130     2.0910     1.2880 h1         1 7HF       0.048700
     42 H6          -2.1280     1.4620     2.8130 h1         1 7HF       0.048700
     43 H8          -4.0180     1.3990     4.3880 h1         1 7HF       0.044700
     44 H9          -4.4740     2.6730     3.2480 h1         1 7HF       0.044700
     45 H10         -6.4510     1.9850     4.5060 h1         1 7HF       0.031700
     46 H11         -6.6250     1.4590     2.8260 h1         1 7HF       0.031700
     47 H12         -7.5670    -1.4230     4.8660 h1         1 7HF       0.031033
     48 H13         -8.1200    -0.4170     3.5190 h1         1 7HF       0.031033
     49 H14         -8.0020     0.2690     5.1460 h1         1 7HF       0.031033
     50 H15         -4.8520    -1.1640     2.5200 h1         1 7HF       0.070200
     51 H16         -3.7850    -0.6740     3.8550 h1         1 7HF       0.070200
     52 H17         -1.9940    -1.5260     2.7270 h1         1 7HF       0.092700
     53 H18         -3.4310    -2.0750     0.1980 hn         1 7HF       0.309500
     54 H19         -3.9290    -4.3340    -0.1310 hn         1 7HF       0.326500
     55 H20         -6.7600    -7.0970     1.0310 hc         1 7HF       0.040033
     56 H21         -6.5520    -5.7350     2.1400 hc         1 7HF       0.040033
     57 H22         -6.2170    -5.5310     0.4150 hc         1 7HF       0.040033
     58 H23         -3.7710   -10.4770     1.9630 h1         1 7HF       0.043700
     59 H24         -3.8690    -9.8870     3.6280 h1         1 7HF       0.043700
     60 H25         -6.1840   -10.7930     3.7850 hc         1 7HF       0.046700
     61 H26         -4.9980   -12.0610     3.4430 hc         1 7HF       0.046700
     62 H27         -6.0240   -11.4360     2.1440 hc         1 7HF       0.046700
     63 H28         -0.6120    -7.2170     3.2920 ha         1 7HF       0.142500
     64 H29          1.7320    -6.4690     3.1580 ha         1 7HF       0.134000
     65 H30          2.4550    -4.9980     1.3170 ha         1 7HF       0.132000
     66 H31          0.8390    -4.2780    -0.3980 ha         1 7HF       0.134000
     67 H32         -1.5060    -5.0240    -0.2760 ha         1 7HF       0.142500
@<TRIPOS>BOND
     1    28    27 1
     2    27    26 1
     3    35    36 ar
     4    35    34 ar
     5    26    25 1
     6    36    31 ar
     7    29    25 2
     8    29    30 1
     9    34    33 ar
    10    25    23 1
    11    31    30 1
    12    31    32 ar
    13    30    22 1
    14    33    32 ar
    15    23    22 2
    16    23    24 1
    17    22    21 1
    18    20    19 2
    19    21    19 1
    20    19    18 1
    21    15    14 1
    22    13    14 1
    23    13    12 1
    24    16    17 1
    25    16    11 1
    26    18    17 1
    27    17     9 1
    28    12    11 1
    29    11    10 1
    30     9    10 1
    31     9     8 1
    32     1     8 ar
    33     1     2 ar
    34     3     2 1
    35     8     7 ar
    36     2     4 ar
    37     7     6 ar
    38     4     6 ar
    39     4     5 1
    40     1    37 1
    41     6    38 1
    42     7    39 1
    43     9    40 1
    44    10    41 1
    45    10    42 1
    46    12    43 1
    47    12    44 1
    48    13    45 1
    49    13    46 1
    50    15    47 1
    51    15    48 1
    52    15    49 1
    53    16    50 1
    54    16    51 1
    55    17    52 1
    56    18    53 1
    57    21    54 1
    58    24    55 1
    59    24    56 1
    60    24    57 1
    61    27    58 1
    62    27    59 1
    63    28    60 1
    64    28    61 1
    65    28    62 1
    66    32    63 1
    67    33    64 1
    68    34    65 1
    69    35    66 1
    70    36    67 1
@<TRIPOS>SUBSTRUCTURE
     1 7HF         1 TEMP              0 ****  ****    0 ROOT
