@<TRIPOS>MOLECULE
7HH
   49    51     1     0     0
SMALL
bcc


@<TRIPOS>ATOM
      1 N14          0.0000     0.0000     0.0000 ns         1 7HH      -0.146900
      2 C16          1.9670     0.0070    -1.4210 c          1 7HH       0.973600
      3 C15          1.4640     0.0000     0.0000 c3         1 7HH      -0.073000
      4 C20         -6.9270     0.0150    -0.1210 c3         1 7HH       0.264700
      5 C21         -8.4220     0.0210     0.0720 ca         1 7HH      -0.105300
      6 C22         -9.1110    -1.1740     0.1680 ca         1 7HH      -0.065500
      7 C23        -10.4810    -1.1690     0.3490 ca         1 7HH      -0.106500
      8 C24        -11.1630     0.0320     0.4350 ca         1 7HH      -0.026600
      9 C12         -0.6740     0.0000     1.1680 c          1 7HH       0.561700
     10 C27         -4.4600     0.9060     7.1530 ca         1 7HH      -0.059000
     11 Cl1        -12.8840     0.0380     0.6640 cl         1 7HH      -0.038400
     12 C2          -2.1500    -0.0000     1.1680 ca         1 7HH      -0.144600
     13 C3          -2.8500     0.0050     2.3770 ca         1 7HH      -0.030000
     14 C4          -4.2330     0.0100     2.3710 ca         1 7HH      -0.143400
     15 C5          -4.9250     0.0100     1.1590 ca         1 7HH       0.110100
     16 C6          -4.2280     0.0050    -0.0400 ca         1 7HH      -0.206000
     17 C7          -2.8500    -0.0000    -0.0410 ca         1 7HH      -0.056000
     18 N8          -4.9380     0.0150     3.5820 ns         1 7HH      -0.015100
     19 C9          -4.3610     0.5050     4.6970 c          1 7HH       0.570700
     20 C10         -5.0560     0.4000     5.9960 ca         1 7HH      -0.150600
     21 O11         -3.2690     1.0340     4.6330 o          1 7HH      -0.621100
     22 O13         -0.0660    -0.0010     2.2200 o          1 7HH      -0.684100
     23 O17          3.2870     0.0090    -1.6660 o          1 7HH      -0.893800
     24 O18          1.1820     0.0110    -2.3390 o          1 7HH      -0.893800
     25 O19         -6.2830     0.0160     1.1540 os         1 7HH      -0.319900
     26 C25        -10.4730     1.2270     0.3390 ca         1 7HH      -0.106500
     27 C26         -9.1030     1.2200     0.1570 ca         1 7HH      -0.065500
     28 C28         -5.1120     0.8000     8.3650 ca         1 7HH      -0.115500
     29 C29         -6.3530     0.1920     8.4340 ca         1 7HH      -0.087000
     30 C30         -6.9490    -0.3120     7.2920 ca         1 7HH      -0.115500
     31 C31         -6.3100    -0.2070     6.0730 ca         1 7HH      -0.059000
     32 H36         -0.5000    -0.0060    -0.8670 hn         1 7HH       0.197500
     33 H37          1.8250    -0.8870     0.5060 h1         1 7HH       0.025700
     34 H38          1.8250     0.8820     0.5150 h1         1 7HH       0.025700
     35 H41         -6.6380    -0.8720    -0.6720 h1         1 7HH       0.009700
     36 H40         -6.6310     0.8970    -0.6760 h1         1 7HH       0.009700
     37 H42         -8.5770    -2.1140     0.1000 ha         1 7HH       0.113000
     38 H43        -11.0200    -2.1050     0.4250 ha         1 7HH       0.113500
     39 H46         -3.4890     1.3830     7.0990 ha         1 7HH       0.117500
     40 H32         -2.3100     0.0050     3.3170 ha         1 7HH       0.178000
     41 H33         -4.7690     0.0050    -0.9790 ha         1 7HH       0.115000
     42 H34         -2.3100    -0.0040    -0.9790 ha         1 7HH       0.124000
     43 H35         -5.8620    -0.3680     3.6240 hn         1 7HH       0.172500
     44 H44        -11.0070     2.1670     0.4060 ha         1 7HH       0.113500
     45 H45         -8.5630     2.1560     0.0820 ha         1 7HH       0.113000
     46 H47         -4.6510     1.1920     9.2630 ha         1 7HH       0.102500
     47 H48         -6.8590     0.1080     9.3880 ha         1 7HH       0.097000
     48 H49         -7.9220    -0.7850     7.3530 ha         1 7HH       0.102500
     49 H50         -6.7780    -0.6020     5.1800 ha         1 7HH       0.117500
@<TRIPOS>BOND
     1     1     3 1   
     2     1     9 1   
     3     1    32 1   
     4     2     3 1   
     5     2    23 1   
     6     2    24 1   
     7     3    33 1   
     8     3    34 1   
     9     4     5 1   
    10     4    25 1   
    11     4    35 1   
    12     4    36 1   
    13     5     6 ar  
    14     5    27 ar  
    15     6     7 ar  
    16     6    37 1   
    17     7     8 ar  
    18     7    38 1   
    19     8    11 1   
    20     8    26 ar  
    21     9    12 1   
    22     9    22 2   
    23    10    20 ar  
    24    10    28 ar  
    25    10    39 1   
    26    12    13 ar  
    27    12    17 ar  
    28    13    14 ar  
    29    13    40 1   
    30    14    15 ar  
    31    14    18 1   
    32    15    16 ar  
    33    15    25 1   
    34    16    17 ar  
    35    16    41 1   
    36    17    42 1   
    37    18    19 1   
    38    18    43 1   
    39    19    20 1   
    40    19    21 2   
    41    20    31 ar  
    42    26    27 ar  
    43    26    44 1   
    44    27    45 1   
    45    28    29 ar  
    46    28    46 1   
    47    29    30 ar  
    48    29    47 1   
    49    30    31 ar  
    50    30    48 1   
    51    31    49 1   
@<TRIPOS>SUBSTRUCTURE
     1 7HH         1 TEMP              0 ****  ****    0 ROOT
