@<TRIPOS>MOLECULE
molecule
   49    51     1     0     0
SMALL
bcc


@<TRIPOS>ATOM
      1 N14          0.0000     0.0000     0.0000 ns         1 7HH      -0.545900
      2 C16          1.9670     0.0070    -1.4210 c          1 7HH       0.884600
      3 C15          1.4640     0.0000     0.0000 c3         1 7HH      -0.003000
      4 C20         -6.9270     0.0150    -0.1210 c3         1 7HH       0.189700
      5 C21         -8.4220     0.0210     0.0720 ca         1 7HH      -0.088300
      6 C22         -9.1110    -1.1740     0.1680 ca         1 7HH      -0.096000
      7 C23        -10.4810    -1.1690     0.3490 ca         1 7HH      -0.128500
      8 C24        -11.1630     0.0320     0.4350 ca         1 7HH       0.034400
      9 C12         -0.6740     0.0000     1.1680 c          1 7HH       0.652700
     10 C27         -4.4600     0.9060     7.1530 ca         1 7HH      -0.085000
     11 Cl1        -12.8840     0.0380     0.6640 cl         1 7HH      -0.117400
     12 C2          -2.1500    -0.0000     1.1680 ca         1 7HH      -0.142600
     13 C3          -2.8500     0.0050     2.3770 ca         1 7HH      -0.056000
     14 C4          -4.2330     0.0100     2.3710 ca         1 7HH       0.014600
     15 C5          -4.9250     0.0100     1.1590 ca         1 7HH       0.101100
     16 C6          -4.2280     0.0050    -0.0400 ca         1 7HH      -0.218000
     17 C7          -2.8500    -0.0000    -0.0410 ca         1 7HH      -0.083000
     18 N8          -4.9380     0.0150     3.5820 ns         1 7HH      -0.461100
     19 C9          -4.3610     0.5050     4.6970 c          1 7HH       0.666700
     20 C10         -5.0560     0.4000     5.9960 ca         1 7HH      -0.140600
     21 O11         -3.2690     1.0340     4.6330 o          1 7HH      -0.582100
     22 O13         -0.0660    -0.0010     2.2200 o          1 7HH      -0.636100
     23 O17          3.2870     0.0090    -1.6660 o          1 7HH      -0.847300
     24 O18          1.1820     0.0110    -2.3390 o          1 7HH      -0.847300
     25 O19         -6.2830     0.0160     1.1540 os         1 7HH      -0.341900
     26 C25        -10.4730     1.2270     0.3390 ca         1 7HH      -0.128500
     27 C26         -9.1030     1.2200     0.1570 ca         1 7HH      -0.096000
     28 C28         -5.1120     0.8000     8.3650 ca         1 7HH      -0.141500
     29 C29         -6.3530     0.1920     8.4340 ca         1 7HH      -0.112000
     30 C30         -6.9490    -0.3120     7.2920 ca         1 7HH      -0.141500
     31 C31         -6.3100    -0.2070     6.0730 ca         1 7HH      -0.085000
     32 H36         -0.5000    -0.0060    -0.8670 hn         1 7HH       0.330500
     33 H37          1.8250    -0.8870     0.5060 h1         1 7HH       0.047700
     34 H38          1.8250     0.8820     0.5150 h1         1 7HH       0.047700
     35 H41         -6.6380    -0.8720    -0.6720 h1         1 7HH       0.046200
     36 H40         -6.6310     0.8970    -0.6760 h1         1 7HH       0.046200
     37 H42         -8.5770    -2.1140     0.1000 ha         1 7HH       0.144000
     38 H43        -11.0200    -2.1050     0.4250 ha         1 7HH       0.143500
     39 H46         -3.4890     1.3830     7.0990 ha         1 7HH       0.145500
     40 H32         -2.3100     0.0050     3.3170 ha         1 7HH       0.200000
     41 H33         -4.7690     0.0050    -0.9790 ha         1 7HH       0.131000
     42 H34         -2.3100    -0.0040    -0.9790 ha         1 7HH       0.152000
     43 H35         -5.8620    -0.3680     3.6240 hn         1 7HH       0.328500
     44 H44        -11.0070     2.1670     0.4060 ha         1 7HH       0.143500
     45 H45         -8.5630     2.1560     0.0820 ha         1 7HH       0.144000
     46 H47         -4.6510     1.1920     9.2630 ha         1 7HH       0.130500
     47 H48         -6.8590     0.1080     9.3880 ha         1 7HH       0.126000
     48 H49         -7.9220    -0.7850     7.3530 ha         1 7HH       0.130500
     49 H50         -6.7780    -0.6020     5.1800 ha         1 7HH       0.145500
@<TRIPOS>BOND
     1    29    30 ar  
     2    29    28 ar  
     3    30    31 ar  
     4    28    10 ar  
     5    31    20 ar  
     6    10    20 ar  
     7    11     8 1   
     8    20    19 1   
     9     7     8 ar  
    10     7     6 ar  
    11     8    26 ar  
    12    19    18 1   
    13    19    21 2   
    14     6     5 ar  
    15    18    14 1   
    16    26    27 ar  
    17     5    27 ar  
    18     5     4 1   
    19    25    15 1   
    20    25     4 1   
    21    14    13 ar  
    22    14    15 ar  
    23    13    12 ar  
    24    15    16 ar  
    25    12    17 ar  
    26    12     9 1   
    27    16    17 ar  
    28    22     9 2   
    29     9     1 1   
    30     1     3 1   
    31     3     2 1   
    32     2    23 1   
    33     2    24 1   
    34     1    32 1   
    35     3    33 1   
    36     3    34 1   
    37     4    35 1   
    38     4    36 1   
    39     6    37 1   
    40     7    38 1   
    41    10    39 1   
    42    13    40 1   
    43    16    41 1   
    44    17    42 1   
    45    18    43 1   
    46    26    44 1   
    47    27    45 1   
    48    28    46 1   
    49    29    47 1   
    50    30    48 1   
    51    31    49 1   
@<TRIPOS>SUBSTRUCTURE
     1 7HH         1 TEMP              0 ****  ****    0 ROOT
