@<TRIPOS>MOLECULE
7HI
   75    78     1     0     0
SMALL
bcc


@<TRIPOS>ATOM
      1 N1           0.0000     0.0000     0.0000 na         1 7HI       0.481900
      2 C4           3.3610     1.0450     1.0370 c3         1 7HI      -0.029400
      3 C5           1.3650     0.0000     0.0000 cc         1 7HI      -0.304600
      4 C7          -0.8360     0.0230     1.2030 c3         1 7HI      -0.078700
      5 C8          -1.1270     1.4720     1.5960 c3         1 7HI      -0.076400
      6 C10         -2.3930     2.9380     3.1750 c3         1 7HI      -0.082400
      7 C13         -2.4170     1.4150    -1.8150 c3         1 7HI      -0.006100
      8 C15         -0.7250    -2.3330   -10.4920 ca         1 7HI      -0.104500
      9 C17          0.9730    -0.2320    -6.4110 ca         1 7HI      -0.123000
     10 C20          0.8410    -0.2530    -7.7830 ca         1 7HI      -0.081000
     11 C21         -0.2680    -1.3580   -12.6310 ca         1 7HI      -0.111000
     12 C22         -0.0130    -1.3050    -9.8750 cp         1 7HI      -0.015000
     13 C24          0.4300    -0.3290   -12.0230 ca         1 7HI      -0.098500
     14 C26         -0.3200    -2.2580    -6.2520 ca         1 7HI      -0.123000
     15 O2           0.5310     1.0050    -4.2120 o          1 7HI      -0.635100
     16 N2           0.5350    -1.2160    -4.2510 ns         1 7HI      -0.043100
     17 C32          0.3960    -1.2360    -5.6410 ca         1 7HI      -0.077400
     18 C23         -0.4490    -2.2860    -7.6250 ca         1 7HI      -0.081000
     19 C29          0.1290    -1.2800    -8.3990 cp         1 7HI      -0.059000
     20 C18          0.5640    -0.3020   -10.6500 ca         1 7HI      -0.104500
     21 C16         -0.8490    -2.3530   -11.8670 ca         1 7HI      -0.098500
     22 C2           0.5980    -0.0230    -2.1200 cd         1 7HI      -0.255600
     23 C12         -0.4690    -0.0150    -1.2630 cc         1 7HI      -0.256600
     24 C27          2.2570     0.0000     1.2170 c3         1 7HI       0.060900
     25 C25          4.5610     0.4140     0.3370 c3         1 7HI      -0.030400
     26 C19          4.1050    -0.6480    -0.6590 c3         1 7HI      -0.053400
     27 C14          3.2260    -0.0000    -1.7330 c3         1 7HI       0.068900
     28 C1           1.7920    -0.0140    -1.2750 cd         1 7HI      -0.127300
     29 C9          -2.0000     1.4950     2.8520 c3         1 7HI       0.201100
     30 O4          -1.2690     0.9430     3.9500 oh         1 7HI      -0.576800
     31 C11         -3.3660     2.9500     4.3550 c3         1 7HI       0.210100
     32 O3          -2.7020     2.4690     5.5260 oh         1 7HI      -0.602800
     33 C35         -3.8570     4.3780     4.5980 c3         1 7HI      -0.182400
     34 C36         -4.9070     4.3730     5.6790 c          1 7HI       0.973600
     35 O7          -5.4830     5.5240     6.0600 o          1 7HI      -0.894300
     36 O6          -5.2300     3.3330     6.2010 o          1 7HI      -0.894300
     37 H4           3.6780     1.3720     2.0200 hc         1 7HI       0.026700
     38 H4A          2.9760     1.8330     0.4000 hc         1 7HI       0.026700
     39 H6          -2.4980    -0.5250    -0.8940 hc         1 7HI       0.014200
     40 H6A         -2.0420    -0.5480    -2.6030 hc         1 7HI       0.014200
     41 H7          -0.3170    -0.4740     2.0140 h1         1 7HI       0.042200
     42 H7A         -1.7690    -0.4910     1.0050 h1         1 7HI       0.042200
     43 H8          -1.6470     1.9690     0.7860 hc         1 7HI       0.035700
     44 H8A         -0.1940     1.9860     1.7950 hc         1 7HI       0.035700
     45 H10         -1.5070     3.5050     3.4310 hc         1 7HI       0.022200
     46 H10A        -2.8690     3.3840     2.3100 hc         1 7HI       0.022200
     47 H13         -2.7770     1.5680    -2.8260 hc         1 7HI       0.012033
     48 H13A        -1.6020     2.1000    -1.6150 hc         1 7HI       0.012033
     49 H13B        -3.2220     1.5980    -1.1140 hc         1 7HI       0.012033
     50 H17          1.5290     0.5650    -5.9320 ha         1 7HI       0.127000
     51 H20          1.2910     0.5290    -8.3820 ha         1 7HI       0.109000
     52 H24          0.8800     0.4490   -12.6270 ha         1 7HI       0.099500
     53 H26         -0.7690    -3.0390    -5.6510 ha         1 7HI       0.127000
     54 HN2          0.6320    -2.0740    -3.7460 hn         1 7HI       0.172500
     55 H23         -1.0050    -3.0840    -8.1010 ha         1 7HI       0.109000
     56 H18          1.1150     0.5010   -10.1750 ha         1 7HI       0.112500
     57 H16         -1.3980    -3.1540   -12.3480 ha         1 7HI       0.099500
     58 H27          2.7040    -0.9790     1.3360 hc         1 7HI       0.026200
     59 H27A         1.6700     0.2440     2.0940 hc         1 7HI       0.026200
     60 H25          5.2030    -0.0460     1.0780 hc         1 7HI       0.008700
     61 H25A         5.1100     1.1840    -0.1900 hc         1 7HI       0.008700
     62 H19          4.9840    -1.0550    -1.1440 hc         1 7HI       0.025200
     63 H19A         3.5040    -1.3750    -0.1260 hc         1 7HI       0.025200
     64 H14          3.5350     1.0320    -1.8450 hc         1 7HI       0.020200
     65 H14A         3.2990    -0.5960    -2.6350 hc         1 7HI       0.020200
     66 H9          -2.8930     0.9060     2.6820 h1         1 7HI      -0.002300
     67 HO4         -1.7380     0.2050     4.3010 ho         1 7HI       0.390000
     68 H11         -4.2120     2.3110     4.1320 h1         1 7HI       0.029700
     69 HO3         -2.6180     3.1710     6.1500 ho         1 7HI       0.406000
     70 H35         -4.2820     4.7740     3.6840 hc         1 7HI       0.014700
     71 H35A        -3.0240     4.9990     4.9070 hc         1 7HI       0.014700
     72 C6          -1.9220    -0.0240    -1.6630 c3         1 7HI       0.066900
     73 C3           0.5520    -0.0400    -3.5910 c          1 7HI       0.640700
     74 H15         -1.1800    -3.1130    -9.8940 ha         1 7HI       0.112500
     75 H21         -0.3700    -1.3770   -13.7100 ha         1 7HI       0.098000
@<TRIPOS>BOND
     1     1     3 1   
     2     1     4 1   
     3     1    23 1   
     4     2    24 1   
     5     2    25 1   
     6     2    37 1   
     7     2    38 1   
     8     3    24 1   
     9     3    28 2   
    10     4     5 1   
    11     4    41 1   
    12     4    42 1   
    13     5    29 1   
    14     5    43 1   
    15     5    44 1   
    16     6    29 1   
    17     6    31 1   
    18     6    45 1   
    19     6    46 1   
    20     7    47 1   
    21     7    48 1   
    22     7    49 1   
    23     7    72 1   
    24     8    12 ar  
    25     8    21 ar  
    26     8    74 1   
    27     9    10 ar  
    28     9    17 ar  
    29     9    50 1   
    30    10    19 ar  
    31    10    51 1   
    32    11    13 ar  
    33    11    21 ar  
    34    11    75 1   
    35    12    19 1   
    36    12    20 ar  
    37    13    20 ar  
    38    13    52 1   
    39    14    17 ar  
    40    14    18 ar  
    41    14    53 1   
    42    15    73 2   
    43    16    17 1   
    44    16    54 1   
    45    16    73 1   
    46    18    19 ar  
    47    18    55 1   
    48    20    56 1   
    49    21    57 1   
    50    22    23 2   
    51    22    28 1   
    52    22    73 1   
    53    23    72 1   
    54    24    58 1   
    55    24    59 1   
    56    25    26 1   
    57    25    60 1   
    58    25    61 1   
    59    26    27 1   
    60    26    62 1   
    61    26    63 1   
    62    27    28 1   
    63    27    64 1   
    64    27    65 1   
    65    29    30 1   
    66    29    66 1   
    67    30    67 1   
    68    31    32 1   
    69    31    33 1   
    70    31    68 1   
    71    32    69 1   
    72    33    34 1   
    73    33    70 1   
    74    33    71 1   
    75    34    35 1   
    76    34    36 1   
    77    39    72 1   
    78    40    72 1   
@<TRIPOS>SUBSTRUCTURE
     1 7HI         1 TEMP              0 ****  ****    0 ROOT
