@<TRIPOS>MOLECULE
molecule
   75    78     1     0     0
SMALL
bcc


@<TRIPOS>ATOM
      1 N1           0.0000     0.0000     0.0000 na         1 7HI      -0.030100
      2 C4           3.3610     1.0450     1.0370 c3         1 7HI      -0.076400
      3 C5           1.3650     0.0000     0.0000 cc         1 7HI      -0.105600
      4 C7          -0.8360     0.0230     1.2030 c3         1 7HI       0.031300
      5 C8          -1.1270     1.4720     1.5960 c3         1 7HI      -0.118400
      6 C10         -2.3930     2.9380     3.1750 c3         1 7HI      -0.115400
      7 C13         -2.4170     1.4150    -1.8150 c3         1 7HI      -0.093100
      8 C15         -0.7250    -2.3330   -10.4920 ca         1 7HI      -0.124000
      9 C17          0.9730    -0.2320    -6.4110 ca         1 7HI      -0.148500
     10 C20          0.8410    -0.2530    -7.7830 ca         1 7HI      -0.103000
     11 C21         -0.2680    -1.3580   -12.6310 ca         1 7HI      -0.135000
     12 C22         -0.0130    -1.3050    -9.8750 cp         1 7HI      -0.021000
     13 C24          0.4300    -0.3290   -12.0230 ca         1 7HI      -0.126500
     14 C26         -0.3200    -2.2580    -6.2520 ca         1 7HI      -0.148500
     15 O2           0.5310     1.0050    -4.2120 o          1 7HI      -0.592100
     16 N2           0.5350    -1.2160    -4.2510 ns         1 7HI      -0.479100
     17 C32          0.3960    -1.2360    -5.6410 ca         1 7HI       0.066600
     18 C23         -0.4490    -2.2860    -7.6250 ca         1 7HI      -0.103000
     19 C29          0.1290    -1.2800    -8.3990 cp         1 7HI      -0.065000
     20 C18          0.5640    -0.3020   -10.6500 ca         1 7HI      -0.124000
     21 C16         -0.8490    -2.3530   -11.8670 ca         1 7HI      -0.126500
     22 C2           0.5980    -0.0230    -2.1200 cd         1 7HI      -0.250600
     23 C12         -0.4690    -0.0150    -1.2630 cc         1 7HI      -0.055600
     24 C27          2.2570     0.0000     1.2170 c3         1 7HI      -0.012100
     25 C25          4.5610     0.4140     0.3370 c3         1 7HI      -0.087400
     26 C19          4.1050    -0.6480    -0.6590 c3         1 7HI      -0.091400
     27 C14          3.2260    -0.0000    -1.7330 c3         1 7HI      -0.002100
     28 C1           1.7920    -0.0140    -1.2750 cd         1 7HI      -0.134300
     29 C9          -2.0000     1.4950     2.8520 c3         1 7HI       0.155100
     30 O4          -1.2690     0.9430     3.9500 oh         1 7HI      -0.595800
     31 C11         -3.3660     2.9500     4.3550 c3         1 7HI       0.166100
     32 O3          -2.7020     2.4690     5.5260 oh         1 7HI      -0.608800
     33 C35         -3.8570     4.3780     4.5980 c3         1 7HI      -0.225400
     34 C36         -4.9070     4.3730     5.6790 c          1 7HI       0.883600
     35 O7          -5.4830     5.5240     6.0600 o          1 7HI      -0.844800
     36 O6          -5.2300     3.3330     6.2010 o          1 7HI      -0.844800
     37 H4           3.6780     1.3720     2.0200 hc         1 7HI       0.055200
     38 H4A          2.9760     1.8330     0.4000 hc         1 7HI       0.055200
     39 H6          -2.4980    -0.5250    -0.8940 hc         1 7HI       0.050700
     40 H6A         -2.0420    -0.5480    -2.6030 hc         1 7HI       0.050700
     41 H7          -0.3170    -0.4740     2.0140 h1         1 7HI       0.064200
     42 H7A         -1.7690    -0.4910     1.0050 h1         1 7HI       0.064200
     43 H8          -1.6470     1.9690     0.7860 hc         1 7HI       0.061700
     44 H8A         -0.1940     1.9860     1.7950 hc         1 7HI       0.061700
     45 H10         -1.5070     3.5050     3.4310 hc         1 7HI       0.046700
     46 H10A        -2.8690     3.3840     2.3100 hc         1 7HI       0.046700
     47 H13         -2.7770     1.5680    -2.8260 hc         1 7HI       0.044367
     48 H13A        -1.6020     2.1000    -1.6150 hc         1 7HI       0.044367
     49 H13B        -3.2220     1.5980    -1.1140 hc         1 7HI       0.044367
     50 H17          1.5290     0.5650    -5.9320 ha         1 7HI       0.150000
     51 H20          1.2910     0.5290    -8.3820 ha         1 7HI       0.132000
     52 H24          0.8800     0.4490   -12.6270 ha         1 7HI       0.126500
     53 H26         -0.7690    -3.0390    -5.6510 ha         1 7HI       0.150000
     54 HN2          0.6320    -2.0740    -3.7460 hn         1 7HI       0.328500
     55 H23         -1.0050    -3.0840    -8.1010 ha         1 7HI       0.132000
     56 H18          1.1150     0.5010   -10.1750 ha         1 7HI       0.133500
     57 H16         -1.3980    -3.1540   -12.3480 ha         1 7HI       0.126500
     58 H27          2.7040    -0.9790     1.3360 hc         1 7HI       0.056200
     59 H27A         1.6700     0.2440     2.0940 hc         1 7HI       0.056200
     60 H25          5.2030    -0.0460     1.0780 hc         1 7HI       0.036700
     61 H25A         5.1100     1.1840    -0.1900 hc         1 7HI       0.036700
     62 H19          4.9840    -1.0550    -1.1440 hc         1 7HI       0.046700
     63 H19A         3.5040    -1.3750    -0.1260 hc         1 7HI       0.046700
     64 H14          3.5350     1.0320    -1.8450 hc         1 7HI       0.051200
     65 H14A         3.2990    -0.5960    -2.6350 hc         1 7HI       0.051200
     66 H9          -2.8930     0.9060     2.6820 h1         1 7HI       0.027700
     67 HO4         -1.7380     0.2050     4.3010 ho         1 7HI       0.403000
     68 H11         -4.2120     2.3110     4.1320 h1         1 7HI       0.060700
     69 HO3         -2.6180     3.1710     6.1500 ho         1 7HI       0.412000
     70 H35         -4.2820     4.7740     3.6840 hc         1 7HI       0.037700
     71 H35A        -3.0240     4.9990     4.9070 hc         1 7HI       0.037700
     72 C6          -1.9220    -0.0240    -1.6630 c3         1 7HI      -0.016100
     73 C3           0.5520    -0.0400    -3.5910 c          1 7HI       0.716700
     74 H15         -1.1800    -3.1130    -9.8940 ha         1 7HI       0.133500
     75 H21         -0.3700    -1.3770   -13.7100 ha         1 7HI       0.124000
@<TRIPOS>BOND
     1    23     1 1   
     2     1     3 1   
     3     1     4 1   
     4    25     2 1   
     5    24     2 1   
     6     2    37 1   
     7     2    38 1   
     8    28     3 2   
     9     3    24 1   
    10     7    72 1   
    11    72    23 1   
    12    72    39 1   
    13    72    40 1   
    14     4     5 1   
    15     4    41 1   
    16     4    42 1   
    17     5    29 1   
    18     5    43 1   
    19     5    44 1   
    20    29     6 1   
    21     6    31 1   
    22     6    45 1   
    23     6    46 1   
    24     7    47 1   
    25     7    48 1   
    26     7    49 1   
    27    21     8 ar  
    28     8    12 ar  
    29     8    74 1   
    30    10     9 ar  
    31     9    17 ar  
    32     9    50 1   
    33    19    10 ar  
    34    10    51 1   
    35    11    13 ar  
    36    11    21 ar  
    37    11    75 1   
    38    20    12 ar  
    39    12    19 1   
    40    13    20 ar  
    41    13    52 1   
    42    18    14 ar  
    43    14    17 ar  
    44    14    53 1   
    45    15    73 2   
    46    16    73 1   
    47    73    22 1   
    48    17    16 1   
    49    16    54 1   
    50    19    18 ar  
    51    18    55 1   
    52    20    56 1   
    53    21    57 1   
    54    22    23 2   
    55    22    28 1   
    56    24    58 1   
    57    24    59 1   
    58    26    25 1   
    59    25    60 1   
    60    25    61 1   
    61    27    26 1   
    62    26    62 1   
    63    26    63 1   
    64    27    28 1   
    65    27    64 1   
    66    27    65 1   
    67    30    29 1   
    68    29    66 1   
    69    30    67 1   
    70    31    33 1   
    71    31    32 1   
    72    31    68 1   
    73    32    69 1   
    74    33    34 1   
    75    33    70 1   
    76    33    71 1   
    77    36    34 1   
    78    34    35 1   
@<TRIPOS>SUBSTRUCTURE
     1 7HI         1 TEMP              0 ****  ****    0 ROOT
