@<TRIPOS>MOLECULE
molecule
   85    88     1     0     0
SMALL
bcc


@<TRIPOS>ATOM
      1 C37          0.0000     0.0000     0.0000 c          1 7HJ       0.688300
      2 O46          1.2170     0.0000     0.0000 o          1 7HJ      -0.627100
      3 C38         -0.7320     0.0000     1.2680 ce         1 7HJ      -0.243200
      4 C39         -0.0580     0.0010     2.4360 cf         1 7HJ      -0.023200
      5 C40         -0.7950     0.0010     3.7100 ca         1 7HJ      -0.074800
      6 C41         -2.1930    -0.0050     3.7140 ca         1 7HJ      -0.106500
      7 C42         -2.8750    -0.0050     4.9130 ca         1 7HJ      -0.132000
      8 C43         -2.1790     0.0020     6.1090 ca         1 7HJ      -0.119000
      9 C44         -0.7960     0.0080     6.1130 ca         1 7HJ      -0.132000
     10 C45         -0.0990     0.0020     4.9240 ca         1 7HJ      -0.106500
     11 C02          0.2050     1.5550    -2.8160 c          1 7HJ       0.637100
     12 C27          0.0570     0.1040    -2.4340 c3         1 7HJ       0.064700
     13 C28         -0.7170    -0.6340    -3.5270 c3         1 7HJ      -0.171400
     14 C29         -0.7620    -2.1060    -3.2040 c          1 7HJ       0.656100
     15 N30         -1.4840    -2.9440    -3.9740 n          1 7HJ      -0.494800
     16 C31         -2.2260    -2.4240    -5.1270 c3         1 7HJ       0.102000
     17 C32         -1.3310    -2.4630    -6.3670 c3         1 7HJ      -0.117600
     18 C33         -1.5280    -4.3740    -3.6600 c3         1 7HJ       0.102000
     19 C34         -2.6950    -4.6520    -2.7100 c3         1 7HJ      -0.117600
     20 O35         -0.1490    -2.5360    -2.2510 o          1 7HJ      -0.591100
     21 N36         -0.6730     0.0050    -1.1670 ns         1 7HJ      -0.546900
     22 N03          0.8470     1.8900    -3.9530 ns         1 7HJ      -0.573900
     23 C04          0.9910     3.3000    -4.3240 c3         1 7HJ       0.048700
     24 C05          1.1570     3.4110    -5.8170 c          1 7HJ       0.648100
     25 O18          1.1550     2.4110    -6.5050 o          1 7HJ      -0.618100
     26 C19          2.2210     3.8880    -3.6290 c3         1 7HJ      -0.044100
     27 C20          2.0020     3.8880    -2.1370 ca         1 7HJ      -0.096300
     28 C21          2.3850     2.7950    -1.3820 ca         1 7HJ      -0.091500
     29 C26          1.4250     4.9850    -1.5250 ca         1 7HJ      -0.091500
     30 C22          2.1850     2.7930    -0.0160 ca         1 7HJ      -0.151500
     31 C25          1.2240     4.9860    -0.1580 ca         1 7HJ      -0.151500
     32 C23          1.6010     3.8890     0.5990 ca         1 7HJ       0.129900
     33 F24          1.4060     3.8900     1.9360 f          1 7HJ      -0.146900
     34 C11          1.8530     8.8710    -8.9420 ca         1 7HJ      -0.103000
     35 C10          0.6700     8.2110    -9.0780 ca         1 7HJ      -0.133000
     36 C12          2.9750     8.1920    -8.4400 ca         1 7HJ      -0.039000
     37 C14          3.9780     6.1470    -7.5730 ca         1 7HJ      -0.125000
     38 C13          2.8560     6.8270    -8.0750 ca         1 7HJ      -0.025000
     39 C15          5.1610     6.8060    -7.4410 ca         1 7HJ      -0.118000
     40 N06          1.3070     4.6220    -6.3900 ns         1 7HJ      -0.578900
     41 C07          1.4680     4.7300    -7.8420 c3         1 7HJ       0.160300
     42 C08          1.6170     6.1800    -8.2240 ca         1 7HJ      -0.112300
     43 C09          0.5540     6.8670    -8.7260 ca         1 7HJ      -0.103000
     44 C16          5.2790     8.1470    -7.8010 ca         1 7HJ      -0.125000
     45 C17          4.2130     8.8390    -8.2910 ca         1 7HJ      -0.113000
     46 H33         -1.8150    -0.0010     1.2680 ha         1 7HJ       0.129000
     47 H34          1.0250     0.0020     2.4360 ha         1 7HJ       0.157000
     48 H35         -2.7390    -0.0110     2.7790 ha         1 7HJ       0.134500
     49 H36         -3.9580    -0.0100     4.9180 ha         1 7HJ       0.130000
     50 H37         -2.7210     0.0040     7.0470 ha         1 7HJ       0.129000
     51 H38         -0.2580     0.0110     7.0540 ha         1 7HJ       0.130000
     52 H39          0.9840     0.0070     4.9290 ha         1 7HJ       0.134500
     53 H19          1.0370    -0.3420    -2.3210 h1         1 7HJ       0.118700
     54 H21         -0.2240    -0.4890    -4.4800 hc         1 7HJ       0.073200
     55 H20         -1.7270    -0.2450    -3.5800 hc         1 7HJ       0.073200
     56 H23         -3.1050    -3.0350    -5.2950 h1         1 7HJ       0.055200
     57 H22         -2.5280    -1.4020    -4.9310 h1         1 7HJ       0.055200
     58 H26         -1.6100    -3.3070    -6.9870 hc         1 7HJ       0.043367
     59 H24         -0.2970    -2.5650    -6.0640 hc         1 7HJ       0.043367
     60 H25         -1.4540    -1.5460    -6.9300 hc         1 7HJ       0.043367
     61 H28         -0.5990    -4.6680    -3.1860 h1         1 7HJ       0.055200
     62 H27         -1.6630    -4.9410    -4.5730 h1         1 7HJ       0.055200
     63 H31         -3.3890    -3.8200    -2.7380 hc         1 7HJ       0.043367
     64 H29         -3.2040    -5.5570    -3.0190 hc         1 7HJ       0.043367
     65 H30         -2.3190    -4.7750    -1.7020 hc         1 7HJ       0.043367
     66 H32         -1.6740    -0.0150    -1.1680 hn         1 7HJ       0.318500
     67 H1           1.2490     1.1770    -4.5290 hn         1 7HJ       0.332500
     68 H2           0.1070     3.8460    -4.0180 h1         1 7HJ       0.097700
     69 H13          3.0910     3.2870    -3.8660 hc         1 7HJ       0.055200
     70 H14          2.3780     4.9030    -3.9710 hc         1 7HJ       0.055200
     71 H15          2.8410     1.9380    -1.8630 ha         1 7HJ       0.130000
     72 H18          1.1300     5.8430    -2.1170 ha         1 7HJ       0.130000
     73 H16          2.4820     1.9360     0.5750 ha         1 7HJ       0.150000
     74 H17          0.7700     5.8450     0.3220 ha         1 7HJ       0.150000
     75 H7          -0.1910     8.7350    -9.4750 ha         1 7HJ       0.133000
     76 H9           3.9010     5.1050    -7.2890 ha         1 7HJ       0.140000
     77 H10          6.0250     6.2800    -7.0540 ha         1 7HJ       0.132000
     78 H3           1.2630     5.4490    -5.8290 hn         1 7HJ       0.323500
     79 H4           2.3510     4.1830    -8.1490 h1         1 7HJ       0.061700
     80 H5           0.5970     4.3140    -8.3330 h1         1 7HJ       0.061700
     81 H6          -0.3990     6.3650    -8.8440 ha         1 7HJ       0.133000
     82 H11          6.2330     8.6480    -7.6860 ha         1 7HJ       0.131000
     83 H12          4.3200     9.8810    -8.5660 ha         1 7HJ       0.135000
     84 H8           1.9280     9.9160    -9.2200 ha         1 7HJ       0.136000
     85 O01         -0.2540     2.4200    -2.1010 o          1 7HJ      -0.588100
@<TRIPOS>BOND
     1    35    34 ar  
     2    35    43 ar  
     3    34    36 ar  
     4    43    42 ar  
     5    36    45 ar  
     6    36    38 ar  
     7    42    38 ar  
     8    42    41 1   
     9    45    44 ar  
    10    38    37 ar  
    11    41    40 1   
    12    40    24 1   
    13    44    39 ar  
    14    37    39 ar  
    15    29    31 ar  
    16    29    27 ar  
    17    24    23 1   
    18    24    25 2   
    19    31    32 ar  
    20    23    26 1   
    21    23    22 1   
    22    85    11 2   
    23    26    27 1   
    24    27    28 ar  
    25    32    33 1   
    26    32    30 ar  
    27    19    18 1   
    28    22    11 1   
    29    11    12 1   
    30    18    15 1   
    31    28    30 ar  
    32     6     7 ar  
    33     6     5 ar  
    34     7     8 ar  
    35    13    12 1   
    36    13    14 1   
    37    12    21 1   
    38     4     5 1   
    39     4     3 2   
    40    21     1 1   
    41     5    10 ar  
    42     8     9 ar  
    43    15    14 1   
    44    15    16 1   
    45    14    20 2   
    46     1     3 1   
    47     1     2 2   
    48    10     9 ar  
    49    16    17 1   
    50    22    67 1   
    51    23    68 1   
    52    40    78 1   
    53    41    79 1   
    54    41    80 1   
    55    43    81 1   
    56    35    75 1   
    57    34    84 1   
    58    37    76 1   
    59    39    77 1   
    60    44    82 1   
    61    45    83 1   
    62    26    69 1   
    63    26    70 1   
    64    28    71 1   
    65    30    73 1   
    66    31    74 1   
    67    29    72 1   
    68    12    53 1   
    69    13    55 1   
    70    13    54 1   
    71    16    57 1   
    72    16    56 1   
    73    17    59 1   
    74    17    60 1   
    75    17    58 1   
    76    18    62 1   
    77    18    61 1   
    78    19    64 1   
    79    19    65 1   
    80    19    63 1   
    81    21    66 1   
    82     3    46 1   
    83     4    47 1   
    84     6    48 1   
    85     7    49 1   
    86     8    50 1   
    87     9    51 1   
    88    10    52 1   
@<TRIPOS>SUBSTRUCTURE
     1 7HJ         1 TEMP              0 ****  ****    0 ROOT
