@<TRIPOS>MOLECULE
7HJ
   85    90     1     0     0
SMALL
bcc


@<TRIPOS>ATOM
      1 C37          0.0000     0.0000     0.0000 c3         1 7HJ       0.373000
      2 O46          1.2170     0.0000     0.0000 o          1 7HJ      -0.452000
      3 C38         -0.7320     0.0000     1.2680 c2         1 7HJ      -0.156000
      4 C39         -0.0580     0.0010     2.4360 c2         1 7HJ       0.020000
      5 C40         -0.7950     0.0010     3.7100 c3         1 7HJ       0.004000
      6 C41         -2.1930    -0.0050     3.7140 c2         1 7HJ      -0.155500
      7 C42         -2.8750    -0.0050     4.9130 c2         1 7HJ      -0.068000
      8 C43         -2.1790     0.0020     6.1090 c2         1 7HJ      -0.141000
      9 C44         -0.7960     0.0080     6.1130 c2         1 7HJ      -0.068000
     10 C45         -0.0990     0.0020     4.9240 c2         1 7HJ      -0.155500
     11 C02          0.2050     1.5550    -2.8160 c2         1 7HJ       0.195000
     12 C27          0.0570     0.1040    -2.4340 c3         1 7HJ      -0.061000
     13 C28         -0.7170    -0.6340    -3.5270 c3         1 7HJ      -0.149000
     14 C29         -0.7620    -2.1060    -3.2040 c2         1 7HJ       0.229000
     15 N30         -1.4840    -2.9440    -3.9740 n          1 7HJ      -0.012000
     16 C31         -2.2260    -2.4240    -5.1270 c3         1 7HJ      -0.070500
     17 C32         -1.3310    -2.4630    -6.3670 c3         1 7HJ      -0.139000
     18 C33         -1.5280    -4.3740    -3.6600 c3         1 7HJ      -0.070500
     19 C34         -2.6950    -4.6520    -2.7100 c3         1 7HJ      -0.139000
     20 O35         -0.1490    -2.5360    -2.2510 o          1 7HJ      -0.404000
     21 N36         -0.6730     0.0050    -1.1670 n7         1 7HJ       0.023000
     22 N03          0.8470     1.8900    -3.9530 ns         1 7HJ       0.014000
     23 C04          0.9910     3.3000    -4.3240 c3         1 7HJ      -0.079000
     24 C05          1.1570     3.4110    -5.8170 c2         1 7HJ       0.207000
     25 O18          1.1550     2.4110    -6.5050 o          1 7HJ      -0.422000
     26 C19          2.2210     3.8880    -3.6290 c3         1 7HJ      -0.062000
     27 C20          2.0020     3.8880    -2.1370 ca         1 7HJ      -0.101000
     28 C21          2.3850     2.7950    -1.3820 ca         1 7HJ      -0.067000
     29 C26          1.4250     4.9850    -1.5250 ca         1 7HJ      -0.067000
     30 C22          2.1850     2.7930    -0.0160 ca         1 7HJ      -0.118000
     31 C25          1.2240     4.9860    -0.1580 ca         1 7HJ      -0.118000
     32 C23          1.6010     3.8890     0.5990 ca         1 7HJ       0.072000
     33 F24          1.4060     3.8900     1.9360 f          1 7HJ      -0.097000
     34 C11          1.8530     8.8710    -8.9420 ca         1 7HJ      -0.072000
     35 C10          0.6700     8.2110    -9.0780 ca         1 7HJ      -0.107000
     36 C12          2.9750     8.1920    -8.4400 ca         1 7HJ      -0.039000
     37 C14          3.9780     6.1470    -7.5730 ca         1 7HJ      -0.109000
     38 C13          2.8560     6.8270    -8.0750 ca         1 7HJ      -0.019000
     39 C15          5.1610     6.8060    -7.4410 ca         1 7HJ      -0.086000
     40 N06          1.3070     4.6220    -6.3900 ns         1 7HJ       0.007000
     41 C07          1.4680     4.7300    -7.8420 c3         1 7HJ      -0.016000
     42 C08          1.6170     6.1800    -8.2240 ca         1 7HJ      -0.114000
     43 C09          0.5540     6.8670    -8.7260 ca         1 7HJ      -0.073000
     44 C16          5.2790     8.1470    -7.8010 ca         1 7HJ      -0.099000
     45 C17          4.2130     8.8390    -8.2910 ca         1 7HJ      -0.082000
     46 H33         -0.2660    -0.8750     0.8310 DU         1 7HJ       0.031000
     47 H34         -0.5220    -0.8740     2.8740 DU         1 7HJ       0.089000
     48 H35         -2.7390    -0.0110     2.7790 ha         1 7HJ       0.119000
     49 H36         -3.9580    -0.0100     4.9180 ha         1 7HJ       0.101000
     50 H37         -2.7210     0.0040     7.0470 ha         1 7HJ       0.103000
     51 H38         -0.2580     0.0110     7.0540 ha         1 7HJ       0.101000
     52 H39          0.9840     0.0070     4.9290 ha         1 7HJ       0.119000
     53 H19          1.0370    -0.3420    -2.3210 h1         1 7HJ       0.130000
     54 H21         -1.7270    -0.2450    -3.5800 hc         1 7HJ       0.084500
     55 H20         -0.2240    -0.4890    -4.4800 hc         1 7HJ       0.084500
     56 H23         -3.1050    -3.0350    -5.2950 h1         1 7HJ       0.069000
     57 H22         -2.5280    -1.4020    -4.9310 h1         1 7HJ       0.069000
     58 H26         -1.4130    -1.5240    -6.9010 hc         1 7HJ       0.051000
     59 H24         -0.3030    -2.6190    -6.0660 hc         1 7HJ       0.051000
     60 H25         -1.6450    -3.2750    -7.0130 hc         1 7HJ       0.051000
     61 H28         -1.6630    -4.9410    -4.5730 h1         1 7HJ       0.069000
     62 H27         -0.5990    -4.6680    -3.1860 h1         1 7HJ       0.069000
     63 H31         -2.3360    -4.6570    -1.6880 hc         1 7HJ       0.051000
     64 H29         -3.4460    -3.8790    -2.8250 hc         1 7HJ       0.051000
     65 H30         -3.1300    -5.6160    -2.9450 hc         1 7HJ       0.051000
     66 H32         -1.6740    -0.0160    -1.1680 hn         1 7HJ       0.093000
     67 H1           1.2510     1.1770    -4.5280 hn         1 7HJ       0.110000
     68 H2           0.1070     3.8460    -4.0180 h1         1 7HJ       0.110000
     69 H13          3.0910     3.2870    -3.8660 hc         1 7HJ       0.063000
     70 H14          2.3780     4.9030    -3.9710 hc         1 7HJ       0.063000
     71 H15          2.8410     1.9380    -1.8630 ha         1 7HJ       0.103000
     72 H18          1.1300     5.8430    -2.1170 ha         1 7HJ       0.103000
     73 H16          2.4820     1.9360     0.5750 ha         1 7HJ       0.127500
     74 H17          0.7700     5.8450     0.3220 ha         1 7HJ       0.127500
     75 H7          -0.1910     8.7350    -9.4750 ha         1 7HJ       0.105000
     76 H9           3.9010     5.1050    -7.2890 ha         1 7HJ       0.115000
     77 H10          6.0250     6.2800    -7.0540 ha         1 7HJ       0.104000
     78 H3           1.2570     5.4500    -5.8300 hn         1 7HJ       0.099000
     79 H4           0.5970     4.3140    -8.3330 h1         1 7HJ       0.073000
     80 H5           2.3510     4.1830    -8.1490 h1         1 7HJ       0.073000
     81 H6          -0.3990     6.3650    -8.8440 ha         1 7HJ       0.106000
     82 H11          6.2330     8.6480    -7.6860 ha         1 7HJ       0.104000
     83 H12          4.3200     9.8810    -8.5660 ha         1 7HJ       0.108000
     84 H8           1.9280     9.9160    -9.2200 ha         1 7HJ       0.108000
     85 O01         -0.2540     2.4200    -2.1010 o          1 7HJ      -0.392000
@<TRIPOS>BOND
     1     1     2 1   
     2     1     3 1   
     3     1    21 1   
     4     1    46 1   
     5     3     4 1   
     6     3    46 1   
     7     4     5 1   
     8     4    47 1   
     9     5     6 1   
    10     5    10 1   
    11     5    47 1   
    12     6     7 1   
    13     6    48 1   
    14     7     8 1   
    15     7    49 1   
    16     8     9 1   
    17     8    50 1   
    18     9    10 1   
    19     9    51 1   
    20    10    52 1   
    21    11    12 1   
    22    11    22 1   
    23    11    85 1   
    24    12    13 1   
    25    12    21 1   
    26    12    53 1   
    27    13    14 1   
    28    13    54 1   
    29    13    55 1   
    30    14    15 1   
    31    14    20 1   
    32    15    16 1   
    33    15    18 1   
    34    16    17 1   
    35    16    56 1   
    36    16    57 1   
    37    17    58 1   
    38    17    59 1   
    39    17    60 1   
    40    18    19 1   
    41    18    61 1   
    42    18    62 1   
    43    19    63 1   
    44    19    64 1   
    45    19    65 1   
    46    21    66 1   
    47    22    23 1   
    48    22    67 1   
    49    23    24 1   
    50    23    26 1   
    51    23    68 1   
    52    24    25 1   
    53    24    40 1   
    54    26    27 1   
    55    26    69 1   
    56    26    70 1   
    57    27    28 1   
    58    27    29 1   
    59    28    30 1   
    60    28    71 1   
    61    29    31 1   
    62    29    72 1   
    63    30    32 1   
    64    30    73 1   
    65    31    32 1   
    66    31    74 1   
    67    32    33 1   
    68    34    35 1   
    69    34    36 1   
    70    34    84 1   
    71    35    43 1   
    72    35    75 1   
    73    36    38 1   
    74    36    45 1   
    75    37    38 1   
    76    37    39 1   
    77    37    76 1   
    78    38    42 1   
    79    39    44 1   
    80    39    77 1   
    81    40    41 1   
    82    40    78 1   
    83    41    42 1   
    84    41    79 1   
    85    41    80 1   
    86    42    43 1   
    87    43    81 1   
    88    44    45 1   
    89    44    82 1   
    90    45    83 1   
@<TRIPOS>SUBSTRUCTURE
     1 7HJ         1 TEMP              0 ****  ****    0 ROOT
