@<TRIPOS>MOLECULE
molecule
   46    49     1     0     0
SMALL
bcc


@<TRIPOS>ATOM
      1 O2           0.0000     0.0000     0.0000 o          1 7HK      -0.642500
      2 C18          1.2160     0.0000     0.0000 c          1 7HK       0.714100
      3 N4           1.8160     0.0000     1.1800 ns         1 7HK      -0.462100
      4 C19          3.1890     0.0270     1.4240 ca         1 7HK       0.030600
      5 C6           4.0780    -0.7100     0.6500 ca         1 7HK       0.084600
      6 C5           5.4310    -0.7090     0.9590 ca         1 7HK      -0.080000
      7 C4           5.9030     0.0530     2.0110 ca         1 7HK      -0.124000
      8 C20          3.6750     0.8030     2.4710 ca         1 7HK      -0.134000
      9 C3           5.0250     0.8150     2.7600 ca         1 7HK      -0.054300
     10 C2           5.5430     1.6610     3.8940 c3         1 7HK      -0.079100
     11 C1           5.5340     0.8540     5.1680 c          1 7HK       0.626100
     12 O3           5.9570     1.4080     6.3150 os         1 7HK      -0.431900
     13 C21          5.9190     0.5730     7.5020 c3         1 7HK       0.139700
     14 O1           5.1460    -0.2900     5.1560 o          1 7HK      -0.537000
     15 C17          1.8810    -0.0060    -1.3040 ca         1 7HK      -0.208600
     16 C7           3.0420    -0.7690    -1.5150 ca         1 7HK       0.167600
     17 N1           3.6340    -1.4390    -0.4600 na         1 7HK      -0.630000
     18 C16          1.3520     0.7480    -2.3590 ca         1 7HK      -0.033000
     19 C15          1.9430     0.7090    -3.5990 ca         1 7HK      -0.191000
     20 C9           3.0700    -0.0820    -3.8180 ca         1 7HK       0.194600
     21 C8           3.6160    -0.8200    -2.7750 ca         1 7HK      -0.169000
     22 N2           3.6480    -0.1330    -5.0820 nu         1 7HK      -0.676000
     23 C10          2.8570     0.0300    -6.2170 ca         1 7HK       0.201600
     24 C14          3.3860     0.5780    -7.3850 ca         1 7HK      -0.306800
     25 C13          2.5700     0.7220    -8.4870 ca         1 7HK       0.447200
     26 N3           1.3040     0.3500    -8.4450 nb         1 7HK      -0.715000
     27 C12          0.7670    -0.1730    -7.3590 ca         1 7HK       0.447200
     28 C11          1.5160    -0.3560    -6.2160 ca         1 7HK      -0.306800
     29 H14          1.2200    -0.0210     1.9840 hn         1 7HK       0.338500
     30 H4           6.1200    -1.3060     0.3720 ha         1 7HK       0.150000
     31 H3           6.9610     0.0640     2.2400 ha         1 7HK       0.137000
     32 H15          2.9910     1.4010     3.0610 ha         1 7HK       0.139000
     33 H1           4.9100     2.5320     4.0130 hc         1 7HK       0.080700
     34 H2           6.5560     1.9780     3.6750 hc         1 7HK       0.080700
     35 H212         4.9000     0.2570     7.6890 h1         1 7HK       0.050700
     36 H211         6.5460    -0.2980     7.3510 h1         1 7HK       0.050700
     37 H213         6.2840     1.1370     8.3520 h1         1 7HK       0.050700
     38 H5           3.0330    -2.1790    -0.1550 hn         1 7HK       0.396800
     39 H13          0.4760     1.3650    -2.1970 ha         1 7HK       0.154000
     40 H12          1.5210     1.2830    -4.4150 ha         1 7HK       0.151000
     41 H6           4.4910    -1.4340    -2.9460 ha         1 7HK       0.150000
     42 H7           4.6320    -0.2840    -5.1760 hn         1 7HK       0.454800
     43 H11          4.4240     0.8850    -7.4270 ha         1 7HK       0.146000
     44 H10          2.9720     1.1460    -9.3990 h4         1 7HK       0.025100
     45 H9          -0.2760    -0.4670    -7.3670 h4         1 7HK       0.025100
     46 H8           1.0680    -0.7850    -5.3280 ha         1 7HK       0.146000
@<TRIPOS>BOND
     1    13    12 1
     2    14    11 2
     3    12    11 1
     4    11    10 1
     5    10     9 1
     6     9     8 ar
     7     9     7 ar
     8     8     4 ar
     9     7     6 ar
    10     1     2 2
    11     3     4 1
    12     3     2 1
    13     4     5 ar
    14     2    15 1
    15    18    15 ar
    16    18    19 ar
    17     6     5 ar
    18    15    16 ar
    19     5    17 1
    20    19    20 ar
    21    16    17 1
    22    16    21 ar
    23    20    21 ar
    24    20    22 1
    25    22    23 1
    26    28    23 ar
    27    28    27 ar
    28    23    24 ar
    29    27    26 ar
    30    24    25 ar
    31    26    25 ar
    32     3    29 1
    33     6    30 1
    34     7    31 1
    35     8    32 1
    36    10    33 1
    37    10    34 1
    38    13    35 1
    39    13    36 1
    40    13    37 1
    41    17    38 1
    42    18    39 1
    43    19    40 1
    44    21    41 1
    45    22    42 1
    46    24    43 1
    47    25    44 1
    48    27    45 1
    49    28    46 1
@<TRIPOS>SUBSTRUCTURE
     1 7HK         1 TEMP              0 ****  ****    0 ROOT
