@<TRIPOS>MOLECULE
7HK
   46    49     1     0     0
SMALL
bcc


@<TRIPOS>ATOM
      1 O2           0.0000     0.0000     0.0000 o          1 7HK      -0.685500
      2 C18          1.2160     0.0000     0.0000 c          1 7HK       0.618100
      3 N4           1.8160     0.0000     1.1800 ns         1 7HK      -0.013100
      4 C19          3.1890     0.0270     1.4240 ca         1 7HK      -0.112400
      5 C6           4.0780    -0.7100     0.6500 ca         1 7HK      -0.014400
      6 C5           5.4310    -0.7090     0.9590 ca         1 7HK      -0.050000
      7 C4           5.9030     0.0530     2.0110 ca         1 7HK      -0.094000
      8 C20          3.6750     0.8030     2.4710 ca         1 7HK      -0.102000
      9 C3           5.0250     0.8150     2.7600 ca         1 7HK      -0.057300
     10 C2           5.5430     1.6610     3.8940 c3         1 7HK      -0.011100
     11 C1           5.5340     0.8540     5.1680 c          1 7HK       0.687100
     12 O3           5.9570     1.4080     6.3150 os         1 7HK      -0.418900
     13 C21          5.9190     0.5730     7.5020 c3         1 7HK       0.270700
     14 O1           5.1460    -0.2900     5.1560 o          1 7HK      -0.576000
     15 C17          1.8810    -0.0060    -1.3040 ca         1 7HK      -0.206600
     16 C7           3.0420    -0.7690    -1.5150 ca         1 7HK       0.065600
     17 N1           3.6340    -1.4390    -0.4600 na         1 7HK      -0.307000
     18 C16          1.3520     0.7480    -2.3590 ca         1 7HK       0.006000
     19 C15          1.9430     0.7090    -3.5990 ca         1 7HK      -0.172000
     20 C9           3.0700    -0.0820    -3.8180 ca         1 7HK       0.039600
     21 C8           3.6160    -0.8200    -2.7750 ca         1 7HK      -0.143000
     22 N2           3.6480    -0.1330    -5.0820 nu         1 7HK      -0.214000
     23 C10          2.8570     0.0300    -6.2170 ca         1 7HK       0.046600
     24 C14          3.3860     0.5780    -7.3850 ca         1 7HK      -0.281800
     25 C13          2.5700     0.7220    -8.4870 ca         1 7HK       0.439200
     26 N3           1.3040     0.3500    -8.4450 nb         1 7HK      -0.614000
     27 C12          0.7670    -0.1730    -7.3590 ca         1 7HK       0.439200
     28 C11          1.5160    -0.3560    -6.2160 ca         1 7HK      -0.281800
     29 H14          1.2200    -0.0210     1.9840 hn         1 7HK       0.180500
     30 H4           6.1200    -1.3060     0.3720 ha         1 7HK       0.116000
     31 H3           6.9610     0.0640     2.2400 ha         1 7HK       0.109000
     32 H15          2.9910     1.4010     3.0610 ha         1 7HK       0.113000
     33 H1           4.9100     2.5320     4.0130 hc         1 7HK       0.040700
     34 H2           6.5560     1.9780     3.6750 hc         1 7HK       0.040700
     35 H212         4.9000     0.2570     7.6890 h1         1 7HK       0.002033
     36 H211         6.5460    -0.2980     7.3510 h1         1 7HK       0.002033
     37 H213         6.2840     1.1370     8.3520 h1         1 7HK       0.002033
     38 H5           3.0330    -2.1790    -0.1550 hn         1 7HK       0.264800
     39 H13          0.4760     1.3650    -2.1970 ha         1 7HK       0.120000
     40 H12          1.5210     1.2830    -4.4150 ha         1 7HK       0.129000
     41 H6           4.4910    -1.4340    -2.9460 ha         1 7HK       0.122000
     42 H7           4.6320    -0.2840    -5.1760 hn         1 7HK       0.289800
     43 H11          4.4240     0.8850    -7.4270 ha         1 7HK       0.126500
     44 H10          2.9720     1.1460    -9.3990 h4         1 7HK      -0.020900
     45 H9          -0.2760    -0.4670    -7.3670 h4         1 7HK      -0.020900
     46 H8           1.0680    -0.7850    -5.3280 ha         1 7HK       0.126500
@<TRIPOS>BOND
     1     1     2 2   
     2     2     3 1   
     3     2    15 1   
     4     3     4 1   
     5     3    29 1   
     6     4     5 ar  
     7     4     8 ar  
     8     5     6 ar  
     9     5    17 1   
    10     6     7 ar  
    11     6    30 1   
    12     7     9 ar  
    13     7    31 1   
    14     8     9 ar  
    15     8    32 1   
    16     9    10 1   
    17    10    11 1   
    18    10    33 1   
    19    10    34 1   
    20    11    12 1   
    21    11    14 2   
    22    12    13 1   
    23    13    35 1   
    24    13    36 1   
    25    13    37 1   
    26    15    16 ar  
    27    15    18 ar  
    28    16    17 1   
    29    16    21 ar  
    30    17    38 1   
    31    18    19 ar  
    32    18    39 1   
    33    19    20 ar  
    34    19    40 1   
    35    20    21 ar  
    36    20    22 1   
    37    21    41 1   
    38    22    23 1   
    39    22    42 1   
    40    23    24 ar  
    41    23    28 ar  
    42    24    25 ar  
    43    24    43 1   
    44    25    26 ar  
    45    25    44 1   
    46    26    27 ar  
    47    27    28 ar  
    48    27    45 1   
    49    28    46 1   
@<TRIPOS>SUBSTRUCTURE
     1 7HK         1 TEMP              0 ****  ****    0 ROOT
