@<TRIPOS>MOLECULE
molecule
   42    44     1     0     0
SMALL
bcc


@<TRIPOS>ATOM
      1 C18          0.0000     0.0000     0.0000 ca         1 7HL      -0.081000
      2 C17          2.8950    -4.4020    -3.4600 ca         1 7HL      -0.076300
      3 C15          1.3970     0.0000     0.0000 ca         1 7HL      -0.113600
      4 C19          2.0890     0.0000     1.2120 ca         1 7HL      -0.081000
      5 C20          3.5260    -5.3460    -2.6710 ca         1 7HL      -0.095000
      6 C21          1.5540    -4.5440    -3.7700 ca         1 7HL      -0.095000
      7 C22         -0.6860     0.0050     1.1970 ca         1 7HL      -0.149500
      8 C23          1.3890    -0.0010     2.4020 ca         1 7HL      -0.149500
      9 C24          2.8170    -6.4310    -2.1920 ca         1 7HL      -0.130500
     10 C11          3.6670    -3.2150    -3.9770 c3         1 7HL       0.187700
     11 C12          5.5800     0.2830    -4.8750 ca         1 7HL      -0.126000
     12 C27          1.4760    -6.5730    -2.5020 ca         1 7HL       0.030400
     13 Cl1          0.5860    -7.9370    -1.9000 cl         1 7HL      -0.129400
     14 C2           4.1860     0.0940    -2.4770 ca         1 7HL       0.043600
     15 C3           4.2270    -0.9900    -3.3500 ca         1 7HL       0.117100
     16 C4           4.8550     1.2790    -2.8110 ca         1 7HL      -0.067600
     17 N5           3.4860    -0.0010    -1.2750 ns         1 7HL      -0.432100
     18 O6           3.5810    -2.1440    -3.0350 os         1 7HL      -0.317900
     19 C7           4.9230    -0.8910    -4.5420 ca         1 7HL      -0.241000
     20 C8           5.5530     1.3620    -4.0190 ca         1 7HL      -0.120000
     21 C9           4.8180     2.4340    -1.8950 c          1 7HL       0.884200
     22 C10          2.1390    -0.0010    -1.2780 c          1 7HL       0.690700
     23 O13          5.4960     3.5590    -2.2020 o          1 7HL      -0.831300
     24 O14          4.1770     2.3730    -0.8650 o          1 7HL      -0.831300
     25 O16          1.5330    -0.0010    -2.3320 o          1 7HL      -0.623100
     26 C25          0.8470    -5.6310    -3.2950 ca         1 7HL      -0.130500
     27 C26          0.0060     0.0110     2.3960 ca         1 7HL      -0.125000
     28 H35         -0.5430    -0.0020    -0.9370 ha         1 7HL       0.146000
     29 H36          3.1720    -0.0040     1.2190 ha         1 7HL       0.146000
     30 H37          4.5760    -5.2350    -2.4280 ha         1 7HL       0.144500
     31 H38          1.0610    -3.8050    -4.3890 ha         1 7HL       0.144500
     32 H39         -1.7700     0.0100     1.1980 ha         1 7HL       0.120000
     33 H40          1.9250     0.0020     3.3440 ha         1 7HL       0.120000
     34 H41          3.3110    -7.1710    -1.5740 ha         1 7HL       0.138500
     35 H32          3.2490    -2.8970    -4.9240 h1         1 7HL       0.037200
     36 H31          4.7050    -3.4920    -4.1150 h1         1 7HL       0.037200
     37 H33          6.1220     0.3510    -5.8100 ha         1 7HL       0.109000
     38 H28          3.9840    -0.1120    -0.4140 hn         1 7HL       0.327500
     39 H29          4.9520    -1.7350    -5.2210 ha         1 7HL       0.110000
     40 H30          6.0710     2.2760    -4.2840 ha         1 7HL       0.159000
     41 H42         -0.2030    -5.7420    -3.5380 ha         1 7HL       0.138500
     42 H43         -0.5380     0.0130     3.3320 ha         1 7HL       0.114000
@<TRIPOS>BOND
     1    27     8 ar  
     2    27     7 ar  
     3     8     4 ar  
     4     7     1 ar  
     5     4     3 ar  
     6     1     3 ar  
     7     3    22 1   
     8    13    12 1   
     9     9    12 ar  
    10     9     5 ar  
    11    12    26 ar  
    12    22    17 1   
    13    22    25 2   
    14    17    14 1   
    15    23    21 1   
    16     5     2 ar  
    17    21    24 1   
    18    21    16 1   
    19    26     6 ar  
    20    14    16 ar  
    21    14    15 ar  
    22     2     6 ar  
    23     2    10 1   
    24    16    20 ar  
    25    18    15 1   
    26    18    10 1   
    27    15    19 ar  
    28    20    11 ar  
    29    19    11 ar  
    30     1    28 1   
    31     4    29 1   
    32     5    30 1   
    33     6    31 1   
    34     7    32 1   
    35     8    33 1   
    36     9    34 1   
    37    10    35 1   
    38    10    36 1   
    39    11    37 1   
    40    17    38 1   
    41    19    39 1   
    42    20    40 1   
    43    26    41 1   
    44    27    42 1   
@<TRIPOS>SUBSTRUCTURE
     1 7HL         1 TEMP              0 ****  ****    0 ROOT
