@<TRIPOS>MOLECULE
molecule
   29    30     1     0     0
SMALL
bcc


@<TRIPOS>ATOM
      1 OAA          0.0000     0.0000     0.0000 o          1 7HN      -0.821800
      2 CAM          1.3480     0.0000     0.0000 c          1 7HN       0.886200
      3 OAB          1.9550     0.0000     1.0520 o          1 7HN      -0.821800
      4 CAU          2.0850     0.0030    -1.2770 ca         1 7HN      -0.095600
      5 CAK          1.3960     0.1660    -2.4820 ca         1 7HN      -0.088000
      6 CAJ          2.0870     0.1660    -3.6750 ca         1 7HN      -0.183000
      7 CAN          3.4660     0.0060    -3.6830 ca         1 7HN       0.031100
      8 OAC          4.1420     0.0090    -4.8600 oh         1 7HN      -0.520100
      9 CAO          4.1580    -0.1560    -2.4840 ca         1 7HN       0.072100
     10 OAD          5.5100    -0.3120    -2.4950 oh         1 7HN      -0.505100
     11 CAV          3.4740    -0.1530    -1.2850 ca         1 7HN      -0.066300
     12 CAL          4.2220    -0.3230     0.0130 c3         1 7HN      -0.024800
     13 CAW          4.4880    -1.7870     0.2510 ca         1 7HN      -0.097300
     14 CAS          5.7040    -2.3370    -0.1170 ca         1 7HN       0.150900
     15 FAH          6.6510    -1.5610    -0.6900 f          1 7HN      -0.075900
     16 CAQ          5.9510    -3.6840     0.1020 ca         1 7HN       0.040900
     17 FAF          7.1370    -4.2200    -0.2580 f          1 7HN      -0.123900
     18 CAP          4.9810    -4.4780     0.6890 ca         1 7HN       0.082900
     19 FAE          5.2200    -5.7900     0.9030 f          1 7HN      -0.125900
     20 CAR          3.7630    -3.9270     1.0570 ca         1 7HN       0.040900
     21 FAG          2.8160    -4.7010     1.6300 f          1 7HN      -0.123900
     22 CAT          3.5210    -2.5800     0.8430 ca         1 7HN       0.150900
     23 FAI          2.3360    -2.0400     1.2070 f          1 7HN      -0.075900
     24 HAK          0.3200     0.2910    -2.4790 ha         1 7HN       0.161000
     25 HAJ          1.5530     0.2920    -4.6090 ha         1 7HN       0.118000
     26 HAC          4.0590     0.8550    -5.2680 ho         1 7HN       0.397000
     27 HAD          5.9110     0.4430    -2.8930 ho         1 7HN       0.402000
     28 HAL1         5.1620     0.2120    -0.0400 hc         1 7HN       0.105700
     29 HAL2         3.6270     0.0730     0.8270 hc         1 7HN       0.105700
@<TRIPOS>BOND
     1     1     2 1
     2     2     3 1
     3     2     4 1
     4     4     5 ar
     5     4    11 ar
     6     5     6 ar
     7     6     7 ar
     8     7     8 1
     9     7     9 ar
    10     9    10 1
    11     9    11 ar
    12    11    12 1
    13    12    13 1
    14    13    14 ar
    15    13    22 ar
    16    14    15 1
    17    14    16 ar
    18    16    17 1
    19    16    18 ar
    20    18    19 1
    21    18    20 ar
    22    20    21 1
    23    20    22 ar
    24    22    23 1
    25     5    24 1
    26     6    25 1
    27     8    26 1
    28    10    27 1
    29    12    28 1
    30    12    29 1
@<TRIPOS>SUBSTRUCTURE
     1 7HN         1 TEMP              0 ****  ****    0 ROOT
