@<TRIPOS>MOLECULE
molecule
   48    50     1     0     0
SMALL
bcc


@<TRIPOS>ATOM
      1 C13          0.0000     0.0000     0.0000 c3         1 7HO       0.186700
      2 C18         -0.9010    -1.1580     3.4790 ca         1 7HO      -0.130000
      3 C17         -1.4240     0.0000     4.0270 ca         1 7HO       0.029400
      4 C16         -1.4850     1.1570     3.2720 ca         1 7HO      -0.130000
      5 C15         -1.0240     1.1570     1.9700 ca         1 7HO      -0.092500
      6 C19         -0.4400    -1.1570     2.1760 ca         1 7HO      -0.092500
      7 C20          4.5130     1.1000     0.4960 c          1 7HO       0.689700
      8 C21          5.3900     1.0920     1.6810 ca         1 7HO      -0.159600
      9 C23          6.0190    -0.0890     2.0830 ca         1 7HO      -0.058000
     10 C24          6.8380    -0.0890     3.1910 ca         1 7HO      -0.219000
     11 C27          5.6010     2.2720     2.4090 ca         1 7HO       0.210100
     12 Cl1         -2.0030    -0.0010     5.6640 cl         1 7HO      -0.142400
     13 C2           3.2890    -0.0490    -3.7010 ca         1 7HO      -0.124000
     14 C3           4.0660    -0.0620    -2.5380 ca         1 7HO      -0.064600
     15 C4           3.4370    -0.0460    -1.2850 ca         1 7HO       0.066600
     16 C5           2.0470    -0.0160    -1.2120 ca         1 7HO       0.113100
     17 C6           1.2940    -0.0020    -2.3720 ca         1 7HO      -0.244000
     18 C7           1.9140    -0.0190    -3.6110 ca         1 7HO      -0.134000
     19 O9           6.1350    -0.1410    -3.8360 o          1 7HO      -0.833300
     20 O10          6.2080    -0.0780    -1.6190 o          1 7HO      -0.833300
     21 O12          1.4300     0.0000     0.0000 os         1 7HO      -0.310900
     22 C14         -0.5020     0.0000     1.4210 ca         1 7HO      -0.070300
     23 O22          4.0720     2.1500     0.0720 o          1 7HO      -0.547100
     24 C25          7.0390     1.0770     3.9110 ca         1 7HO      -0.091000
     25 C26          6.4290     2.2540     3.5230 ca         1 7HO      -0.255000
     26 O28          5.0010     3.4260     2.0250 os         1 7HO      -0.235900
     27 C29          5.2730     4.5900     2.8090 c3         1 7HO       0.015400
     28 C30          4.4690     5.7500     2.2800 c          1 7HO       0.893600
     29 O31          4.6270     6.9730     2.8100 o          1 7HO      -0.830300
     30 O32          3.6810     5.5790     1.3800 o          1 7HO      -0.830300
     31 H39         -0.3610    -0.8850    -0.5100 h1         1 7HO       0.034700
     32 H38         -0.3610     0.8840    -0.5110 h1         1 7HO       0.034700
     33 H42         -0.8520    -2.0640     4.0700 ha         1 7HO       0.136000
     34 H41         -1.8940     2.0640     3.7010 ha         1 7HO       0.136000
     35 H40         -1.0720     2.0630     1.3790 ha         1 7HO       0.146500
     36 H43         -0.0300    -2.0630     1.7460 ha         1 7HO       0.146500
     37 H44          5.8650    -1.0040     1.5230 ha         1 7HO       0.129000
     38 H45          7.3230    -1.0060     3.5030 ha         1 7HO       0.103000
     39 H33          3.7680    -0.0620    -4.6730 ha         1 7HO       0.151000
     40 H34          0.2120     0.0210    -2.3120 ha         1 7HO       0.103000
     41 H35          1.3160    -0.0090    -4.5140 ha         1 7HO       0.099000
     42 H37          4.4920    -0.9290     0.2780 hn         1 7HO       0.309500
     43 H46          7.6840     1.0680     4.7820 ha         1 7HO       0.099000
     44 H47          6.5930     3.1620     4.0900 ha         1 7HO       0.136000
     45 H48          6.3280     4.8260     2.7500 h1         1 7HO       0.019200
     46 H49          5.0010     4.4030     3.8400 h1         1 7HO       0.019200
     47 C8           5.5370    -0.0940    -2.6300 c          1 7HO       0.887200
     48 N11          4.2010    -0.0580    -0.1190 ns         1 7HO      -0.466100
@<TRIPOS>BOND
     1    24    25 ar  
     2    24    10 ar  
     3    30    28 1   
     4    25    11 ar  
     5    28    27 1   
     6    28    29 1   
     7    10     9 ar  
     8    27    26 1   
     9    11    26 1   
    10    11     8 ar  
    11    12     3 1   
    12     9     8 ar  
    13     8     7 1   
    14     4     3 ar  
    15     4     5 ar  
    16     3     2 ar  
    17     7    48 1   
    18     7    23 2   
    19     5    22 ar  
    20    48    15 1   
    21     2     6 ar  
    22    19    47 1   
    23    22     6 ar  
    24    22     1 1   
    25    47    20 1   
    26    47    14 1   
    27    21     1 1   
    28    21    16 1   
    29    15    14 ar  
    30    15    16 ar  
    31    14    13 ar  
    32    16    17 ar  
    33    13    18 ar  
    34    17    18 ar  
    35     1    31 1   
    36     1    32 1   
    37     2    33 1   
    38     4    34 1   
    39     5    35 1   
    40     6    36 1   
    41     9    37 1   
    42    10    38 1   
    43    13    39 1   
    44    17    40 1   
    45    18    41 1   
    46    48    42 1   
    47    24    43 1   
    48    25    44 1   
    49    27    45 1   
    50    27    46 1   
@<TRIPOS>SUBSTRUCTURE
     1 7HO         1 TEMP              0 ****  ****    0 ROOT
