@<TRIPOS>MOLECULE
7HO
   48    50     1     0     0
SMALL
bcc


@<TRIPOS>ATOM
      1 C13          0.0000     0.0000     0.0000 c3         1 7HO       0.255700
      2 C18         -0.9010    -1.1580     3.4790 ca         1 7HO      -0.109500
      3 C17         -1.4240     0.0000     4.0270 ca         1 7HO      -0.026600
      4 C16         -1.4850     1.1570     3.2720 ca         1 7HO      -0.109500
      5 C15         -1.0240     1.1570     1.9700 ca         1 7HO      -0.062500
      6 C19         -0.4400    -1.1570     2.1760 ca         1 7HO      -0.062500
      7 C20          4.5130     1.1000     0.4960 c          1 7HO       0.594700
      8 C21          5.3900     1.0920     1.6810 ca         1 7HO      -0.173600
      9 C23          6.0190    -0.0890     2.0830 ca         1 7HO      -0.036000
     10 C24          6.8380    -0.0890     3.1910 ca         1 7HO      -0.203000
     11 C27          5.6010     2.2720     2.4090 ca         1 7HO       0.222100
     12 Cl1         -2.0030    -0.0010     5.6640 cl         1 7HO      -0.068400
     13 C2           3.2890    -0.0490    -3.7010 ca         1 7HO      -0.100000
     14 C3           4.0660    -0.0620    -2.5380 ca         1 7HO      -0.057600
     15 C4           3.4370    -0.0460    -1.2850 ca         1 7HO      -0.075400
     16 C5           2.0470    -0.0160    -1.2120 ca         1 7HO       0.125100
     17 C6           1.2940    -0.0020    -2.3720 ca         1 7HO      -0.240000
     18 C7           1.9140    -0.0190    -3.6110 ca         1 7HO      -0.104000
     19 O9           6.1350    -0.1410    -3.8360 o          1 7HO      -0.885300
     20 O10          6.2080    -0.0780    -1.6190 o          1 7HO      -0.885300
     21 O12          1.4300     0.0000     0.0000 os         1 7HO      -0.288900
     22 C14         -0.5020     0.0000     1.4210 ca         1 7HO      -0.085300
     23 O22          4.0720     2.1500     0.0720 o          1 7HO      -0.596100
     24 C25          7.0390     1.0770     3.9110 ca         1 7HO      -0.063000
     25 C26          6.4290     2.2540     3.5230 ca         1 7HO      -0.254000
     26 O28          5.0010     3.4260     2.0250 os         1 7HO      -0.201900
     27 C29          5.2730     4.5900     2.8090 c3         1 7HO       0.072400
     28 C30          4.4690     5.7500     2.2800 c          1 7HO       0.973600
     29 O31          4.6270     6.9730     2.8100 o          1 7HO      -0.885800
     30 O32          3.6810     5.5790     1.3800 o          1 7HO      -0.885800
     31 H39         -0.3610    -0.8850    -0.5100 h1         1 7HO       0.000700
     32 H38         -0.3610     0.8840    -0.5110 h1         1 7HO       0.000700
     33 H42         -0.8520    -2.0640     4.0700 ha         1 7HO       0.109000
     34 H41         -1.8940     2.0640     3.7010 ha         1 7HO       0.109000
     35 H40         -1.0720     2.0630     1.3790 ha         1 7HO       0.115500
     36 H43         -0.0300    -2.0630     1.7460 ha         1 7HO       0.115500
     37 H44          5.8650    -1.0040     1.5230 ha         1 7HO       0.104000
     38 H45          7.3230    -1.0060     3.5030 ha         1 7HO       0.084000
     39 H33          3.7680    -0.0620    -4.6730 ha         1 7HO       0.127000
     40 H34          0.2120     0.0210    -2.3120 ha         1 7HO       0.095000
     41 H35          1.3160    -0.0090    -4.5140 ha         1 7HO       0.076000
     42 H37          4.4920    -0.9290     0.2780 hn         1 7HO       0.158500
     43 H46          7.6840     1.0680     4.7820 ha         1 7HO       0.074000
     44 H47          6.5930     3.1620     4.0900 ha         1 7HO       0.125000
     45 H48          6.3280     4.8260     2.7500 h1         1 7HO      -0.010800
     46 H49          5.0010     4.4030     3.8400 h1         1 7HO      -0.010800
     47 C8           5.5370    -0.0940    -2.6300 c          1 7HO       0.978200
     48 N11          4.2010    -0.0580    -0.1190 ns         1 7HO      -0.032100
@<TRIPOS>BOND
     1     1    21 1   
     2     1    22 1   
     3     1    31 1   
     4     1    32 1   
     5     2     3 ar  
     6     2     6 ar  
     7     2    33 1   
     8     3     4 ar  
     9     3    12 1   
    10     4     5 ar  
    11     4    34 1   
    12     5    22 ar  
    13     5    35 1   
    14     6    22 ar  
    15     6    36 1   
    16     7     8 1   
    17     7    23 2   
    18     7    48 1   
    19     8     9 ar  
    20     8    11 ar  
    21     9    10 ar  
    22     9    37 1   
    23    10    24 ar  
    24    10    38 1   
    25    11    25 ar  
    26    11    26 1   
    27    13    14 ar  
    28    13    18 ar  
    29    13    39 1   
    30    14    15 ar  
    31    14    47 1   
    32    15    16 ar  
    33    15    48 1   
    34    16    17 ar  
    35    16    21 1   
    36    17    18 ar  
    37    17    40 1   
    38    18    41 1   
    39    19    47 1   
    40    20    47 1   
    41    24    25 ar  
    42    24    43 1   
    43    25    44 1   
    44    26    27 1   
    45    27    28 1   
    46    27    45 1   
    47    27    46 1   
    48    28    29 1   
    49    28    30 1   
    50    42    48 1   
@<TRIPOS>SUBSTRUCTURE
     1 7HO         1 TEMP              0 ****  ****    0 ROOT
