@<TRIPOS>MOLECULE
7HP
   14    15     1     0     0
SMALL
bcc


@<TRIPOS>ATOM
      1 C9         -0.0290    0.0670    0.0000 cc        1 7HP      0.235200
      2 C4          1.4290    0.0090    0.0560 ca        1 7HP      0.320000
      3 N3          2.3420    0.0010    1.0600 nb        1 7HP     -0.649000
      4 C2          3.6220   -0.0640    0.6450 ca        1 7HP      0.639900
      5 N1          4.1100   -0.1230   -0.6400 nb        1 7HP     -0.759000
      6 C6          3.2040   -0.1150   -1.6380 ca        1 7HP      0.676600
      7 O6          3.5680   -0.1690   -2.9580 oh        1 7HP     -0.615300
      8 C5          1.8120   -0.0490   -1.3500 ca        1 7HP     -0.308800
      9 N7          0.6300   -0.0220   -2.0860 na        1 7HP      0.022900
     10 N8         -0.4370    0.0460   -1.2880 nd        1 7HP     -0.489100
     11 H9         -0.7210    0.1210    0.8420 h4        1 7HP      0.072800
     12 H2          4.4010   -0.0730    1.4370 h5        1 7HP      0.060100
     13 HO6         4.5380   -0.2110   -3.0260 ho        1 7HP      0.452000
     14 HN7         0.5410   -0.0480   -3.0750 hn        1 7HP      0.341700
@<TRIPOS>BOND
     1    1    2 1   
     2    1   10 2   
     3    1   11 1   
     4    2    3 ar  
     5    2    8 ar  
     6    3    4 ar  
     7    4    5 ar  
     8    4   12 1   
     9    5    6 ar  
    10    6    7 1   
    11    6    8 ar  
    12    7   13 1   
    13    8    9 1   
    14    9   10 1   
    15    9   14 1   
@<TRIPOS>SUBSTRUCTURE
     1 7HP         1 TEMP              0 ****  ****    0 ROOT
