@<TRIPOS>MOLECULE
molecule
   14    15     1     0     0
SMALL
bcc


@<TRIPOS>ATOM
      1 C9           0.0000     0.0000     0.0000 cc         1 7HP       0.273200
      2 C4           1.4110     0.0000     0.0000 ca         1 7HP       0.314000
      3 N3           2.3460     0.0000     0.9560 nb         1 7HP      -0.694000
      4 C2           3.6220     0.0010     0.6410 ca         1 7HP       0.671900
      5 N1           4.0440     0.0000    -0.6120 nb         1 7HP      -0.768000
      6 C6           3.1900     0.0000    -1.6260 ca         1 7HP       0.667600
      7 O6           3.6350     0.0010    -2.9060 oh         1 7HP      -0.618300
      8 C5           1.8200     0.0060    -1.3460 ca         1 7HP      -0.279800
      9 N7           0.6800     0.0000    -2.1040 na         1 7HP      -0.025100
     10 N8          -0.4180     0.0000    -1.2340 nd         1 7HP      -0.477100
     11 H9          -0.6310    -0.0000     0.8800 h4         1 7HP       0.077800
     12 H2           4.3550     0.0010     1.4380 h5         1 7HP       0.066100
     13 HO6          4.2770    -0.6800    -3.0160 ho         1 7HP       0.444000
     14 HN7          0.6380     0.0010    -3.1040 hn         1 7HP       0.346700
@<TRIPOS>BOND
     1     1     2 1
     2     1    10 2
     3     1    11 1
     4     2     3 ar
     5     2     8 ar
     6     3     4 ar
     7     4     5 ar
     8     4    12 1
     9     5     6 ar
    10     6     7 1
    11     6     8 ar
    12     7    13 1
    13     8     9 1
    14     9    10 1
    15     9    14 1
@<TRIPOS>SUBSTRUCTURE
     1 7HP         1 TEMP              0 ****  ****    0 ROOT
