@<TRIPOS>MOLECULE
molecule
   19    20     1     0     0
SMALL
bcc


@<TRIPOS>ATOM
      1 CAI          0.0000     0.0000     0.0000 ca         1 7HQ      -0.069000
      2 CAK          1.3670     0.0000     0.0000 ca         1 7HQ      -0.146000
      3 CAJ          2.0740     0.0000     1.1940 ca         1 7HQ      -0.115000
      4 CAF          1.4080    -0.0010     2.4010 ca         1 7HQ      -0.130000
      5 CAD          0.0200    -0.0010     2.4210 ca         1 7HQ      -0.093200
      6 CAE         -0.6960     0.0000     1.2110 ca         1 7HQ       0.097400
      7 NAC         -2.0150     0.0040     1.5330 nc         1 7HQ      -0.611100
      8 CAG         -2.1500     0.0000     2.8270 cd         1 7HQ       0.454700
      9 NAB         -0.9280    -0.0010     3.4240 na         1 7HQ      -0.167300
     10 CAH         -0.6660    -0.0000     4.8660 c3         1 7HQ       0.274100
     11 OAA         -1.9060     0.0000     5.5750 oh         1 7HQ      -0.617800
     12 H1          -0.5430    -0.0000    -0.9380 ha         1 7HQ       0.143000
     13 H2           1.9030     0.0010    -0.9410 ha         1 7HQ       0.133000
     14 H3           3.1570     0.0000     1.1770 ha         1 7HQ       0.131000
     15 H4           1.9650    -0.0010     3.3300 ha         1 7HQ       0.122000
     16 H5          -3.0970    -0.0010     3.3520 h5         1 7HQ       0.086800
     17 H6          -0.0990     0.8840     5.1300 h2         1 7HQ       0.039200
     18 H7          -0.1000    -0.8850     5.1300 h2         1 7HQ       0.039200
     19 H8          -1.7380     0.0000     6.5030 ho         1 7HQ       0.430000
@<TRIPOS>BOND
     1    11    10 1   
     2     3     4 ar  
     3     3     2 ar  
     4     4     5 ar  
     5    10     9 1   
     6     2     1 ar  
     7     5     9 1   
     8     5     6 ar  
     9     9     8 1   
    10     1     6 ar  
    11     6     7 1   
    12     8     7 2   
    13     1    12 1   
    14     2    13 1   
    15     3    14 1   
    16     4    15 1   
    17     8    16 1   
    18    10    17 1   
    19    10    18 1   
    20    11    19 1   
@<TRIPOS>SUBSTRUCTURE
     1 7HQ         1 TEMP              0 ****  ****    0 ROOT
