@<TRIPOS>MOLECULE
molecule
   77    81     1     0     0
SMALL
bcc


@<TRIPOS>ATOM
      1 N12          0.0000     0.0000     0.0000 nh         1 7HR      -0.609100
      2 C13          1.4640     0.0000     0.0000 c3         1 7HR       0.251100
      3 C17         -2.2870    -2.0730    -2.3270 cc         1 7HR      -0.212400
      4 C20          0.8680    -3.5900    -3.6040 ca         1 7HR      -0.082000
      5 C21          1.3120    -4.5400    -4.5000 ca         1 7HR      -0.172500
      6 C22          0.4210    -5.1430    -5.3730 ca         1 7HR       0.135900
      7 C24         -0.9210    -4.7970    -5.3480 ca         1 7HR      -0.172500
      8 C26         -0.8770    -0.9040     5.4020 c3         1 7HR      -0.011400
      9 C28          0.2740    -1.0040     7.6170 c3         1 7HR       0.236800
     10 C39         -5.0230     2.2290    13.1450 c3         1 7HR       0.150100
     11 N38         -4.2910     0.9790    12.9020 n3         1 7HR      -0.732600
     12 C40         -5.1050    -0.1880    13.2700 c3         1 7HR       0.150100
     13 C37         -3.8480     0.8910    11.5030 c3         1 7HR       0.171800
     14 C36         -2.8870    -0.2880    11.3450 c3         1 7HR      -0.060400
     15 C35         -2.4260    -0.3790     9.8890 c3         1 7HR      -0.232600
     16 O33         -0.0660    -1.5200    10.3830 o          1 7HR      -0.625300
     17 O34         -1.9750    -3.0080     9.8720 o          1 7HR      -0.625300
     18 N29         -0.8840    -1.7710     8.0950 n3         1 7HR      -0.819500
     19 C30         -1.6800    -2.5300     7.1210 c3         1 7HR       0.236800
     20 C31         -2.1130    -1.5850     5.9950 c3         1 7HR      -0.093400
     21 C27         -0.1800    -0.0760     6.4860 c3         1 7HR      -0.093400
     22 C08         -1.2960     0.0000     4.2720 cc         1 7HR      -0.114300
     23 C09         -0.8150    -0.2120     3.0310 cd         1 7HR      -0.076300
     24 N10         -1.1840     0.5990     1.9930 na         1 7HR       0.036700
     25 C07         -2.1920     1.0560     4.5160 cc         1 7HR      -0.121000
     26 C06         -2.5690     1.8710     3.4950 cd         1 7HR      -0.085000
     27 C05         -2.0550     1.6430     2.2020 cd         1 7HR      -0.008300
     28 N04         -2.2430     2.2600     1.0470 nc         1 7HR      -0.306600
     29 C03         -1.5250     1.6500     0.0980 cc         1 7HR       0.079400
     30 C02         -1.4650     2.0470    -1.3540 c3         1 7HR      -0.007200
     31 C01         -0.4270     3.1570    -1.5370 c3         1 7HR      -0.084100
     32 C11         -0.8570     0.6120     0.6640 cd         1 7HR      -0.010100
     33 C14         -0.6900    -0.7730    -0.9210 cc         1 7HR       0.703300
     34 N15         -0.1510    -1.6270    -1.7360 nd         1 7HR      -0.750000
     35 S18         -2.4420    -0.8250    -1.0930 ss         1 7HR      -0.210300
     36 C16         -0.9800    -2.3360    -2.5000 cd         1 7HR       0.453800
     37 C19         -0.4800    -3.2390    -3.5760 ca         1 7HR      -0.134500
     38 C25         -1.3750    -3.8490    -4.4540 ca         1 7HR      -0.082000
     39 H1           1.8250     0.7050     0.7390 h1         1 7HR       0.050367
     40 H2           1.8250     0.2880    -0.9800 h1         1 7HR       0.050367
     41 H3           1.8250    -0.9930     0.2410 h1         1 7HR       0.050367
     42 H4          -3.1050    -2.5470    -2.8560 h4         1 7HR       0.181000
     43 H6           1.5650    -3.1190    -2.9220 ha         1 7HR       0.147000
     44 H7           2.3600    -4.8140    -4.5230 ha         1 7HR       0.146000
     45 H8          -1.6150    -5.2720    -6.0320 ha         1 7HR       0.146000
     46 H9          -0.1930    -1.6590     5.0330 hc         1 7HR       0.059700
     47 H10          1.0310    -1.6840     7.2450 h1         1 7HR       0.062950
     48 H11          0.6780    -0.4120     8.4300 h1         1 7HR       0.062950
     49 H12         -4.3980     3.0710    12.8750 h1         1 7HR       0.033533
     50 H13         -5.9250     2.2420    12.5460 h1         1 7HR       0.033533
     51 H14         -5.2840     2.2960    14.1940 h1         1 7HR       0.033533
     52 H16         -5.7360     0.0630    14.1140 h1         1 7HR       0.033533
     53 H17         -4.4540    -1.0120    13.5390 h1         1 7HR       0.033533
     54 H18         -5.7240    -0.4770    12.4290 h1         1 7HR       0.033533
     55 H19         -3.3430     1.8090    11.2270 h1         1 7HR       0.034700
     56 H20         -4.7080     0.7450    10.8610 h1         1 7HR       0.034700
     57 H21         -2.0270    -0.1420    11.9880 hc         1 7HR       0.064200
     58 H22         -3.3920    -1.2060    11.6220 hc         1 7HR       0.064200
     59 H23         -1.9210     0.5390     9.6120 h1         1 7HR       0.094200
     60 H24         -3.2860    -0.5250     9.2460 h1         1 7HR       0.094200
     61 H25         -2.5570    -2.9370     7.6090 h1         1 7HR       0.062950
     62 H26         -1.0800    -3.3320     6.7100 h1         1 7HR       0.062950
     63 H27         -2.6170    -2.1530     5.2220 hc         1 7HR       0.051950
     64 H28         -2.7830    -0.8330     6.3930 hc         1 7HR       0.051950
     65 H29          0.6820     0.4220     6.0600 hc         1 7HR       0.051950
     66 H30         -0.8730     0.6590     6.8790 hc         1 7HR       0.051950
     67 H31         -0.1280    -1.0300     2.8540 h4         1 7HR       0.165000
     68 H32         -2.5050     1.2770     5.5300 ha         1 7HR       0.143000
     69 H33         -3.2590     2.6870     3.6730 ha         1 7HR       0.163000
     70 H34         -2.4370     2.4060    -1.6700 hc         1 7HR       0.062200
     71 H35         -1.1850     1.1880    -1.9520 hc         1 7HR       0.062200
     72 H36         -0.9330     4.1050    -1.6740 hc         1 7HR       0.038033
     73 H37          0.2060     3.2080    -0.6600 hc         1 7HR       0.038033
     74 H38          0.1800     2.9430    -2.4080 hc         1 7HR       0.038033
     75 H40         -2.4230    -3.5790    -4.4350 ha         1 7HR       0.147000
     76 F23          0.8600    -6.0730    -6.2490 f          1 7HR      -0.141900
     77 S32         -1.2860    -1.7770     9.7020 s6         1 7HR       1.331900
@<TRIPOS>BOND
     1     1     2 1   
     2     1    32 1   
     3     1    33 1   
     4     3    35 1   
     5     3    36 2   
     6     4     5 ar  
     7     4    37 ar  
     8     5     6 ar  
     9     6     7 ar  
    10     6    76 1   
    11     7    38 ar  
    12     8    20 1   
    13     8    21 1   
    14     8    22 1   
    15     9    18 1   
    16     9    21 1   
    17    10    11 1   
    18    11    12 1   
    19    11    13 1   
    20    13    14 1   
    21    14    15 1   
    22    15    77 1   
    23    77    16 2   
    24    77    17 2   
    25    77    18 1   
    26    18    19 1   
    27    19    20 1   
    28    22    23 2   
    29    22    25 1   
    30    23    24 1   
    31    24    27 1   
    32    24    32 1   
    33    25    26 2   
    34    26    27 1   
    35    27    28 2   
    36    28    29 1   
    37    29    30 1   
    38    29    32 2   
    39    30    31 1   
    40    33    34 2   
    41    33    35 1   
    42    34    36 1   
    43    36    37 1   
    44    37    38 ar  
    45     2    39 1   
    46     2    40 1   
    47     2    41 1   
    48     3    42 1   
    49     4    43 1   
    50     5    44 1   
    51     7    45 1   
    52     8    46 1   
    53     9    47 1   
    54     9    48 1   
    55    10    49 1   
    56    10    50 1   
    57    10    51 1   
    58    12    52 1   
    59    12    53 1   
    60    12    54 1   
    61    13    55 1   
    62    13    56 1   
    63    14    57 1   
    64    14    58 1   
    65    15    59 1   
    66    15    60 1   
    67    19    61 1   
    68    19    62 1   
    69    20    63 1   
    70    20    64 1   
    71    21    65 1   
    72    21    66 1   
    73    23    67 1   
    74    25    68 1   
    75    26    69 1   
    76    30    70 1   
    77    30    71 1   
    78    31    72 1   
    79    31    73 1   
    80    31    74 1   
    81    38    75 1   
@<TRIPOS>SUBSTRUCTURE
     1 7HR         1 TEMP              0 ****  ****    0 ROOT
