@<TRIPOS>MOLECULE
7HR
   77    81     1     0     0
SMALL
bcc


@<TRIPOS>ATOM
      1 N12          0.0000     0.0000     0.0000 nh         1 7HR      -0.150100
      2 C13          1.4640     0.0000     0.0000 c3         1 7HR       0.196100
      3 C17         -2.2870    -2.0730    -2.3270 cc         1 7HR      -0.151400
      4 C20          0.8680    -3.5900    -3.6040 ca         1 7HR      -0.058000
      5 C21          1.3120    -4.5400    -4.5000 ca         1 7HR      -0.137500
      6 C22          0.4210    -5.1430    -5.3730 ca         1 7HR       0.106900
      7 C24         -0.9210    -4.7970    -5.3480 ca         1 7HR      -0.137500
      8 C26         -0.8770    -0.9040     5.4020 c3         1 7HR       0.014600
      9 C28          0.2740    -1.0040     7.6170 c3         1 7HR       0.240300
     10 C39         -5.0230     2.2290    13.1450 c3         1 7HR       0.183100
     11 N38         -4.2910     0.9790    12.9020 n3         1 7HR      -0.545600
     12 C40         -5.1050    -0.1880    13.2700 c3         1 7HR       0.183100
     13 C37         -3.8480     0.8910    11.5030 c3         1 7HR       0.153800
     14 C36         -2.8870    -0.2880    11.3450 c3         1 7HR      -0.003400
     15 C35         -2.4260    -0.3790     9.8890 c3         1 7HR      -0.016600
     16 O33         -0.0660    -1.5200    10.3830 o          1 7HR      -0.580800
     17 O34         -1.9750    -3.0080     9.8720 o          1 7HR      -0.580800
     18 N29         -0.8840    -1.7710     8.0950 n3         1 7HR      -0.547500
     19 C30         -1.6800    -2.5300     7.1210 c3         1 7HR       0.240300
     20 C31         -2.1130    -1.5850     5.9950 c3         1 7HR      -0.047400
     21 C27         -0.1800    -0.0760     6.4860 c3         1 7HR      -0.047400
     22 C08         -1.2960     0.0000     4.2720 cc         1 7HR      -0.067300
     23 C09         -0.8150    -0.2120     3.0310 cd         1 7HR      -0.277300
     24 N10         -1.1840     0.5990     1.9930 na         1 7HR       0.614700
     25 C07         -2.1920     1.0560     4.5160 cc         1 7HR      -0.129000
     26 C06         -2.5690     1.8710     3.4950 cd         1 7HR      -0.020000
     27 C05         -2.0550     1.6430     2.2020 cd         1 7HR      -0.230300
     28 N04         -2.2430     2.2600     1.0470 nc         1 7HR      -0.224600
     29 C03         -1.5250     1.6500     0.0980 cc         1 7HR       0.063400
     30 C02         -1.4650     2.0470    -1.3540 c3         1 7HR       0.033800
     31 C01         -0.4270     3.1570    -1.5370 c3         1 7HR       0.009900
     32 C11         -0.8570     0.6120     0.6640 cd         1 7HR      -0.368100
     33 C14         -0.6900    -0.7730    -0.9210 cc         1 7HR       0.550300
     34 N15         -0.1510    -1.6270    -1.7360 nd         1 7HR      -0.653000
     35 S18         -2.4420    -0.8250    -1.0930 ss         1 7HR      -0.328300
     36 C16         -0.9800    -2.3360    -2.5000 cd         1 7HR       0.429800
     37 C19         -0.4800    -3.2390    -3.5760 ca         1 7HR      -0.139500
     38 C25         -1.3750    -3.8490    -4.4540 ca         1 7HR      -0.058000
     39 H1           1.8250     0.7050     0.7390 h1         1 7HR       0.018033
     40 H2           1.8250     0.2880    -0.9800 h1         1 7HR       0.018033
     41 H3           1.8250    -0.9930     0.2410 h1         1 7HR       0.018033
     42 H4          -3.1050    -2.5470    -2.8560 h4         1 7HR       0.165000
     43 H6           1.5650    -3.1190    -2.9220 ha         1 7HR       0.118000
     44 H7           2.3600    -4.8140    -4.5230 ha         1 7HR       0.119000
     45 H8          -1.6150    -5.2720    -6.0320 ha         1 7HR       0.119000
     46 H9          -0.1930    -1.6590     5.0330 hc         1 7HR       0.036700
     47 H10          1.0310    -1.6840     7.2450 h1         1 7HR       0.028200
     48 H11          0.6780    -0.4120     8.4300 h1         1 7HR       0.028200
     49 H12         -4.3980     3.0710    12.8750 h1         1 7HR       0.002367
     50 H13         -5.9250     2.2420    12.5460 h1         1 7HR       0.002367
     51 H14         -5.2840     2.2960    14.1940 h1         1 7HR       0.002367
     52 H16         -5.7360     0.0630    14.1140 h1         1 7HR       0.002367
     53 H17         -4.4540    -1.0120    13.5390 h1         1 7HR       0.002367
     54 H18         -5.7240    -0.4770    12.4290 h1         1 7HR       0.002367
     55 H19         -3.3430     1.8090    11.2270 h1         1 7HR       0.007700
     56 H20         -4.7080     0.7450    10.8610 h1         1 7HR       0.007700
     57 H21         -2.0270    -0.1420    11.9880 hc         1 7HR       0.037700
     58 H22         -3.3920    -1.2060    11.6220 hc         1 7HR       0.037700
     59 H23         -1.9210     0.5390     9.6120 h1         1 7HR       0.064200
     60 H24         -3.2860    -0.5250     9.2460 h1         1 7HR       0.064200
     61 H25         -2.5570    -2.9370     7.6090 h1         1 7HR       0.028200
     62 H26         -1.0800    -3.3320     6.7100 h1         1 7HR       0.028200
     63 H27         -2.6170    -2.1530     5.2220 hc         1 7HR       0.022700
     64 H28         -2.7830    -0.8330     6.3930 hc         1 7HR       0.022700
     65 H29          0.6820     0.4220     6.0600 hc         1 7HR       0.022700
     66 H30         -0.8730     0.6590     6.8790 hc         1 7HR       0.022700
     67 H31         -0.1280    -1.0300     2.8540 h4         1 7HR       0.144000
     68 H32         -2.5050     1.2770     5.5300 ha         1 7HR       0.121000
     69 H33         -3.2590     2.6870     3.6730 ha         1 7HR       0.126000
     70 H34         -2.4370     2.4060    -1.6700 hc         1 7HR       0.036700
     71 H35         -1.1850     1.1880    -1.9520 hc         1 7HR       0.036700
     72 H36         -0.9330     4.1050    -1.6740 hc         1 7HR       0.003700
     73 H37          0.2060     3.2080    -0.6600 hc         1 7HR       0.003700
     74 H38          0.1800     2.9430    -2.4080 hc         1 7HR       0.003700
     75 H40         -2.4230    -3.5790    -4.4350 ha         1 7HR       0.118000
     76 F23          0.8600    -6.0730    -6.2490 f          1 7HR      -0.129900
     77 S32         -1.2860    -1.7770     9.7020 s6         1 7HR       0.967900
@<TRIPOS>BOND
     1     1     2 1   
     2     1    32 1   
     3     1    33 1   
     4     2    39 1   
     5     2    40 1   
     6     2    41 1   
     7     3    35 1   
     8     3    36 2   
     9     3    42 1   
    10     4     5 ar  
    11     4    37 ar  
    12     4    43 1   
    13     5     6 ar  
    14     5    44 1   
    15     6     7 ar  
    16     6    76 1   
    17     7    38 ar  
    18     7    45 1   
    19     8    20 1   
    20     8    21 1   
    21     8    22 1   
    22     8    46 1   
    23     9    18 1   
    24     9    21 1   
    25     9    47 1   
    26     9    48 1   
    27    10    11 1   
    28    10    49 1   
    29    10    50 1   
    30    10    51 1   
    31    11    12 1   
    32    11    13 1   
    33    12    52 1   
    34    12    53 1   
    35    12    54 1   
    36    13    14 1   
    37    13    55 1   
    38    13    56 1   
    39    14    15 1   
    40    14    57 1   
    41    14    58 1   
    42    15    59 1   
    43    15    60 1   
    44    15    77 1   
    45    16    77 2   
    46    17    77 2   
    47    18    19 1   
    48    18    77 1   
    49    19    20 1   
    50    19    61 1   
    51    19    62 1   
    52    20    63 1   
    53    20    64 1   
    54    21    65 1   
    55    21    66 1   
    56    22    23 2   
    57    22    25 1   
    58    23    24 1   
    59    23    67 1   
    60    24    27 1   
    61    24    32 1   
    62    25    26 2   
    63    25    68 1   
    64    26    27 1   
    65    26    69 1   
    66    27    28 2   
    67    28    29 1   
    68    29    30 1   
    69    29    32 2   
    70    30    31 1   
    71    30    70 1   
    72    30    71 1   
    73    31    72 1   
    74    31    73 1   
    75    31    74 1   
    76    33    34 2   
    77    33    35 1   
    78    34    36 1   
    79    36    37 1   
    80    37    38 ar  
    81    38    75 1   
@<TRIPOS>SUBSTRUCTURE
     1 7HR         1 TEMP              0 ****  ****    0 ROOT
