@<TRIPOS>MOLECULE
molecule
   53    52     1     0     0
SMALL
bcc


@<TRIPOS>ATOM
      1 N            0.0000     0.0000     0.0000 ns         1 7HS      -0.609900
      2 CA           1.4640     0.0000     0.0000 c3         1 7HS       0.057700
      3 CAA         -2.1820     1.0120     0.5790 c3         1 7HS      -0.240100
      4 CAB         -0.6740     1.0130     0.5780 c          1 7HS       0.654100
      5 CAN          3.7140    -0.3980     3.0730 c3         1 7HS      -0.043300
      6 CAO          4.2280     0.9750     3.4230 c          1 7HS       0.541900
      7 CAQ          4.8470    -1.4180     3.2130 c3         1 7HS      -0.090400
      8 CAR          4.2960    -2.8260     2.9790 c3         1 7HS      -0.106400
      9 CAS          5.4280    -3.8460     3.1200 c3         1 7HS       0.244800
     10 CAU          5.7400    -6.2810     2.9700 c2         1 7HS       0.687100
     11 C            1.9670     0.0000     1.4210 c          1 7HS       0.642100
     12 O            1.2380     0.3590     2.3220 o          1 7HS      -0.549100
     13 NAM          3.2250    -0.3990     1.6910 ns         1 7HS      -0.589900
     14 NAT          4.9010    -5.1940     2.8950 nu         1 7HS      -0.859200
     15 NAV          7.0030    -6.1120     3.2420 n2         1 7HS      -0.777100
     16 NAW          5.2450    -7.5470     2.7590 nz         1 7HS      -0.807600
     17 OAC         -0.0680     1.9250     1.1000 o          1 7HS      -0.558100
     18 CB           1.9750     1.2490    -0.7210 c3         1 7HS      -0.098400
     19 CG           1.5700     1.1880    -2.1950 c3         1 7HS      -0.072400
     20 CD           2.0800     2.4380    -2.9170 c3         1 7HS      -0.111400
     21 CE           1.6750     2.3750    -4.3910 c3         1 7HS       0.091800
     22 NZ           2.1640     3.5760    -5.0830 nz         1 7HS      -0.810600
     23 H1          -0.5000    -0.7690    -0.4010 hn         1 7HS       0.325500
     24 H2           1.8250    -0.8850    -0.5110 h1         1 7HS       0.054700
     25 H3          -1.5730     0.2350     0.1310 hc         1 7HS       0.091367
     26 H4          -2.6570     1.6990    -0.1120 hc         1 7HS       0.091367
     27 H5          -2.6560     0.7600     1.5190 hc         1 7HS       0.091367
     28 H6           2.9050    -0.6630     3.7420 h1         1 7HS       0.113700
     29 H7           3.4350     0.8580     4.1530 h4         1 7HS       0.042200
     30 H8           5.6170    -1.2050     2.4820 hc         1 7HS       0.066700
     31 H9           5.2670    -1.3560     4.2090 hc         1 7HS       0.066700
     32 H10          3.8760    -2.8880     1.9820 hc         1 7HS       0.054700
     33 H11          3.5250    -3.0390     3.7090 hc         1 7HS       0.054700
     34 H12          5.8470    -3.7840     4.1160 h1         1 7HS       0.076700
     35 H13          6.1990    -3.6330     2.3890 h1         1 7HS       0.076700
     36 H14          3.8380    -0.6590     0.9440 hn         1 7HS       0.309500
     37 H15          3.9300    -5.3240     2.6910 hn         1 7HS       0.453800
     38 H16          7.6140    -6.9030     3.2970 hn         1 7HS       0.445400
     39 H17          5.7150    -7.9630     1.9790 hn         1 7HS       0.469133
     40 H18          5.3960    -8.1050     3.5760 hn         1 7HS       0.469133
     41 H19          1.5430     2.1320    -0.2640 hc         1 7HS       0.084700
     42 H20          3.0540     1.2950    -0.6450 hc         1 7HS       0.084700
     43 H21          0.4900     1.1420    -2.2720 hc         1 7HS       0.053200
     44 H22          2.0020     0.3050    -2.6520 hc         1 7HS       0.053200
     45 H23          1.6470     3.3200    -2.4610 hc         1 7HS       0.072200
     46 H24          3.1590     2.4840    -2.8400 hc         1 7HS       0.072200
     47 H25          0.5950     2.3290    -4.4680 hx         1 7HS       0.110700
     48 H26          2.1080     1.4930    -4.8470 hx         1 7HS       0.110700
     49 H27          1.9000     3.5360    -6.0480 hn         1 7HS       0.459800
     50 H28          3.1620     3.6190    -5.0120 hn         1 7HS       0.459800
     51 HAW3         4.2660    -7.4940     2.5610 hn         1 7HS       0.469133
     52 HZ3          1.7650     4.3910    -4.6610 hn         1 7HS       0.459800
     53 OAX          4.1900     1.8610     2.6040 o          1 7HS      -0.437100
@<TRIPOS>BOND
     1    15    10 2   
     2    10    16 1   
     3    10    14 1   
     4    14     9 1   
     5     9     8 1   
     6     8     7 1   
     7     7     5 1   
     8     5     6 1   
     9     5    13 1   
    10     6    53 2   
    11    13    11 1   
    12    12    11 2   
    13    11     2 1   
    14    17     4 2   
    15     3     4 1   
    16     4     1 1   
    17     1     2 1   
    18     2    18 1   
    19    18    19 1   
    20    19    20 1   
    21    20    21 1   
    22    22    21 1   
    23     1    23 1   
    24     2    24 1   
    25     3    25 1   
    26     3    26 1   
    27     3    27 1   
    28     5    28 1   
    29     6    29 1   
    30     7    30 1   
    31     7    31 1   
    32     8    32 1   
    33     8    33 1   
    34     9    34 1   
    35     9    35 1   
    36    13    36 1   
    37    14    37 1   
    38    15    38 1   
    39    16    39 1   
    40    16    40 1   
    41    18    41 1   
    42    18    42 1   
    43    19    43 1   
    44    19    44 1   
    45    20    45 1   
    46    20    46 1   
    47    21    47 1   
    48    21    48 1   
    49    22    49 1   
    50    22    50 1   
    51    51    16 1   
    52    52    22 1   
@<TRIPOS>SUBSTRUCTURE
     1 7HS         1 TEMP              0 ****  ****    0 ROOT
