@<TRIPOS>MOLECULE
7HS
   53    53     1     0     0
SMALL
bcc


@<TRIPOS>ATOM
      1 N            0.0000     0.0000     0.0000 n7         1 7HS      -0.039000
      2 CA           1.4640     0.0000     0.0000 c3         1 7HS      -0.047000
      3 CAA         -2.1820     1.0120     0.5790 c3         1 7HS      -0.196000
      4 CAB         -0.6740     1.0130     0.5780 c3         1 7HS       0.213000
      5 CAN          3.7140    -0.3980     3.0730 c3         1 7HS      -0.196000
      6 CAO          4.2280     0.9750     3.4230 c2         1 7HS       0.228000
      7 CAQ          4.8470    -1.4180     3.2130 c3         1 7HS      -0.100000
      8 CAR          4.2960    -2.8260     2.9790 c3         1 7HS      -0.117000
      9 CAS          5.4280    -3.8460     3.1200 c3         1 7HS      -0.071000
     10 CAU          5.7400    -6.2810     2.9700 c2         1 7HS      -0.351000
     11 C            1.9670     0.0000     1.4210 c2         1 7HS       0.197000
     12 O            1.2380     0.3590     2.3220 o          1 7HS      -0.344000
     13 NAM          3.2250    -0.3990     1.6910 ns         1 7HS      -0.011000
     14 NAT          4.9010    -5.1940     2.8950 n7         1 7HS       0.020000
     15 NAV          7.0030    -6.1120     3.2420 n2         1 7HS      -0.073000
     16 NAW          5.2450    -7.5470     2.7590 nz         1 7HS       0.964000
     17 OAC         -0.0680     1.9250     1.1000 o          1 7HS      -0.355000
     18 CB           1.9750     1.2490    -0.7210 c3         1 7HS      -0.140000
     19 CG           1.5700     1.1880    -2.1950 c3         1 7HS      -0.093000
     20 CD           2.0800     2.4380    -2.9170 c3         1 7HS      -0.114000
     21 CE           1.6750     2.3750    -4.3910 c3         1 7HS      -0.289000
     22 NZ           2.1640     3.5760    -5.0830 nz         1 7HS       0.860000
     23 H1          -0.5000    -0.7690    -0.4010 hn         1 7HS       0.102000
     24 H2           1.8250    -0.8850    -0.5110 h1         1 7HS       0.063000
     25 H3          -1.5730     0.2350     0.1310 DU         1 7HS       0.049000
     26 H4          -2.6560     0.7600     1.5190 hc         1 7HS       0.110000
     27 H5          -2.6570     1.6990    -0.1120 hc         1 7HS       0.110000
     28 H6           2.9050    -0.6630     3.7420 h1         1 7HS       0.129000
     29 H7           3.4350     0.8580     4.1530 h4         1 7HS       0.112000
     30 H8           5.6170    -1.2050     2.4820 hc         1 7HS       0.073000
     31 H9           5.2670    -1.3560     4.2090 hc         1 7HS       0.073000
     32 H10          3.8760    -2.8880     1.9820 hc         1 7HS       0.067000
     33 H11          3.5250    -3.0390     3.7090 hc         1 7HS       0.067000
     34 H12          6.1990    -3.6330     2.3890 h1         1 7HS       0.073000
     35 H13          5.8470    -3.7840     4.1160 h1         1 7HS       0.073000
     36 H14          3.8380    -0.6590     0.9440 hn         1 7HS       0.084000
     37 H15          3.9300    -5.3240     2.6910 hn         1 7HS       0.101000
     38 H16          7.3650    -5.1920     3.3960 hn         1 7HS       0.140000
     39 H17          4.5350    -7.7450     3.4360 hn         1 7HS       0.020000
     40 H18          4.8540    -7.6030     1.8390 hn         1 7HS       0.020000
     41 H19          1.5430     2.1320    -0.2640 hc         1 7HS       0.096500
     42 H20          3.0540     1.2950    -0.6450 hc         1 7HS       0.096500
     43 H21          0.4900     1.1420    -2.2720 hc         1 7HS       0.062000
     44 H22          2.0020     0.3050    -2.6520 hc         1 7HS       0.062000
     45 H23          1.6470     3.3200    -2.4610 hc         1 7HS       0.079000
     46 H24          3.1590     2.4840    -2.8400 hc         1 7HS       0.079000
     47 H25          2.1080     1.4930    -4.8470 hx         1 7HS       0.123500
     48 H26          0.5950     2.3290    -4.4680 hx         1 7HS       0.123500
     49 H27          1.9000     3.5360    -6.0480 hn         1 7HS       0.021333
     50 H28          3.1620     3.6190    -5.0120 hn         1 7HS       0.021333
     51 HAW3         5.9850    -8.2140     2.8540 hn         1 7HS       0.020000
     52 HZ3          1.7680     4.3910    -4.6590 hn         1 7HS       0.021333
     53 OAX          4.1900     1.8610     2.6040 o          1 7HS      -0.218000
@<TRIPOS>BOND
     1     1     2 1   
     2     1     4 1   
     3     1    23 1   
     4     2    11 1   
     5     2    18 1   
     6     2    24 1   
     7     3     4 1   
     8     3    25 1   
     9     3    26 1   
    10     3    27 1   
    11     4    17 1   
    12     4    25 1   
    13     5     6 1   
    14     5     7 1   
    15     5    13 1   
    16     5    28 1   
    17     6    29 1   
    18     6    53 1   
    19     7     8 1   
    20     7    30 1   
    21     7    31 1   
    22     8     9 1   
    23     8    32 1   
    24     8    33 1   
    25     9    14 1   
    26     9    34 1   
    27     9    35 1   
    28    10    14 1   
    29    10    15 1   
    30    10    16 1   
    31    11    12 1   
    32    11    13 1   
    33    13    36 1   
    34    14    37 1   
    35    15    38 1   
    36    16    39 1   
    37    16    40 1   
    38    16    51 1   
    39    18    19 1   
    40    18    41 1   
    41    18    42 1   
    42    19    20 1   
    43    19    43 1   
    44    19    44 1   
    45    20    21 1   
    46    20    45 1   
    47    20    46 1   
    48    21    22 1   
    49    21    47 1   
    50    21    48 1   
    51    22    49 1   
    52    22    50 1   
    53    22    52 1   
@<TRIPOS>SUBSTRUCTURE
     1 7HS         1 TEMP              0 ****  ****    0 ROOT
