@<TRIPOS>MOLECULE
7HT
   72    76     1     0     0
SMALL
bcc


@<TRIPOS>ATOM
      1 C1           0.0000     0.0000     0.0000 c3         1 7HT      -0.003100
      2 C2           1.5300     0.0000     0.0000 c3         1 7HT      -0.054500
      3 C3           2.0400     0.0000     1.4430 c3         1 7HT       0.114800
      4 N4           3.5090     0.0190     1.4390 n3         1 7HT      -0.520600
      5 C5           4.0400    -0.0380     2.8080 c3         1 7HT       0.025800
      6 C6           3.6200     1.1980     3.5610 c          1 7HT       0.559100
      7 C10          4.0640     2.1130     7.1170 c3         1 7HT      -0.004700
      8 C11          5.0090     3.2350     7.5530 c3         1 7HT       0.011400
      9 C12          2.9500     1.9260     8.1480 c3         1 7HT       0.011400
     10 C13          4.8290     0.8260     6.9250 ca         1 7HT      -0.245600
     11 C14          5.5720     0.0560     7.7950 ca         1 7HT       0.470200
     12 C16          6.0600    -1.4640     6.1340 ca         1 7HT       0.417600
     13 C19          9.1470    -2.3020     5.1370 ca         1 7HT      -0.090500
     14 C21         10.8860    -2.5300     6.7660 ca         1 7HT      -0.092000
     15 C22          9.9490    -2.8860     7.7180 ca         1 7HT      -0.097500
     16 C23          8.6110    -2.9540     7.3780 ca         1 7HT      -0.090500
     17 C24          5.3360    -0.7500     5.2040 ca         1 7HT      -0.278300
     18 C25          4.6980     0.4310     5.5980 ca         1 7HT      -0.076400
     19 C26          4.0140     1.2020     0.7280 c3         1 7HT       0.043500
     20 C27          5.5440     1.1730     0.7110 c3         1 7HT       0.018300
     21 C31          7.9730     1.4700     5.0850 c3         1 7HT       0.084200
     22 O7           3.0140     2.0790     2.9900 o          1 7HT      -0.672100
     23 N8           3.9190     1.3240     4.8700 n          1 7HT       0.071000
     24 C9           3.4690     2.4200     5.7320 c3         1 7HT       0.031000
     25 N15          6.1580    -1.0520     7.3830 nb         1 7HT      -0.570000
     26 C18          8.2100    -2.6630     6.0870 ca         1 7HT      -0.101300
     27 C20         10.4850    -2.2380     5.4760 ca         1 7HT      -0.097500
     28 N28          6.0550     1.6720     1.9900 na         1 7HT       0.438400
     29 C29          6.8720     1.0060     2.8330 cc         1 7HT      -0.270300
     30 C30          7.1110     1.8080     3.8960 cd         1 7HT      -0.283600
     31 C32          6.4170     3.0060     3.6960 cd         1 7HT       0.402200
     32 N33          5.7880     2.9280     2.5510 nc         1 7HT      -0.637800
     33 C34          3.4870     1.1920    -0.7090 c3         1 7HT      -0.017200
     34 N35          2.0190     1.2000    -0.6930 ny         1 7HT       0.041000
     35 H37         -0.3610    -0.8720     0.5310 hc         1 7HT       0.036367
     36 H38         -0.3610    -0.0240    -1.0210 hc         1 7HT       0.036367
     37 H36         -0.3610     0.8960     0.4900 hc         1 7HT       0.036367
     38 H39          1.8950    -0.8830    -0.5100 hx         1 7HT       0.093700
     39 H41          1.6920    -0.8930     1.9480 h1         1 7HT       0.066700
     40 H40          1.6690     0.8790     1.9560 h1         1 7HT       0.066700
     41 H43          5.1210    -0.0910     2.7750 h1         1 7HT       0.082200
     42 H42          3.6510    -0.9160     3.3100 h1         1 7HT       0.082200
     43 H46          4.4780     4.1790     7.5440 hc         1 7HT       0.014533
     44 H47          5.8480     3.2870     6.8690 hc         1 7HT       0.014533
     45 H48          5.3720     3.0340     8.5540 hc         1 7HT       0.014533
     46 H51          2.3300     2.8130     8.1750 hc         1 7HT       0.014533
     47 H49          2.3450     1.0700     7.8750 hc         1 7HT       0.014533
     48 H50          3.3870     1.7620     9.1260 hc         1 7HT       0.014533
     49 H52          5.6740     0.3640     8.8290 h4         1 7HT      -0.008900
     50 H57         11.9350    -2.4780     7.0310 ha         1 7HT       0.107000
     51 H58         10.2630    -3.1150     8.7290 ha         1 7HT       0.106500
     52 H59          7.8760    -3.2350     8.1230 ha         1 7HT       0.104000
     53 H60          5.2630    -1.0980     4.1800 ha         1 7HT       0.130000
     54 H61          3.6700     2.0980     1.2310 h1         1 7HT       0.123700
     55 H63          5.9080     1.8010    -0.0930 h1         1 7HT       0.045700
     56 H62          5.8840     0.1560     0.5580 h1         1 7HT       0.045700
     57 H65          7.8200     0.4340     5.3590 hc         1 7HT       0.017033
     58 H66          7.7050     2.1080     5.9180 hc         1 7HT       0.017033
     59 H67          9.0150     1.6270     4.8310 hc         1 7HT       0.017033
     60 H45          3.8670     3.3580     5.3650 h1         1 7HT       0.046200
     61 H44          2.3870     2.4140     5.7930 h1         1 7HT       0.046200
     62 H56         11.2190    -1.9570     4.7300 ha         1 7HT       0.106500
     63 H64          7.3340     0.0450     2.6430 h4         1 7HT       0.159000
     64 H68          6.4080     3.8540     4.3700 h4         1 7HT       0.018100
     65 H69          3.8370     0.3000    -1.2140 hx         1 7HT       0.080700
     66 H70          3.8460     2.0720    -1.2290 hx         1 7HT       0.080700
     67 H72          1.6960     2.0160    -0.2120 hn         1 7HT       0.242800
     68 H71          1.6760     1.2030    -1.6330 hn         1 7HT       0.242800
     69 C17          6.7510    -2.7380     5.7160 c3         1 7HT      -0.009400
     70 H55          8.8330    -2.0740     4.1260 ha         1 7HT       0.104000
     71 H54          6.6560    -2.8650     4.6450 hc         1 7HT       0.026200
     72 H53          6.2920    -3.5790     6.2210 hc         1 7HT       0.026200
@<TRIPOS>BOND
     1     1     2 1   
     2     1    35 1   
     3     1    36 1   
     4     1    37 1   
     5     2     3 1   
     6     2    34 1   
     7     2    38 1   
     8     3     4 1   
     9     3    39 1   
    10     3    40 1   
    11     4     5 1   
    12     4    19 1   
    13     5     6 1   
    14     5    41 1   
    15     5    42 1   
    16     6    22 2   
    17     6    23 1   
    18     7     8 1   
    19     7     9 1   
    20     7    10 1   
    21     7    24 1   
    22     8    43 1   
    23     8    44 1   
    24     8    45 1   
    25     9    46 1   
    26     9    47 1   
    27     9    48 1   
    28    10    11 ar  
    29    10    18 ar  
    30    11    25 ar  
    31    11    49 1   
    32    12    17 ar  
    33    12    25 ar  
    34    12    69 1   
    35    13    26 ar  
    36    13    27 ar  
    37    13    70 1   
    38    14    15 ar  
    39    14    27 ar  
    40    14    50 1   
    41    15    16 ar  
    42    15    51 1   
    43    16    26 ar  
    44    16    52 1   
    45    17    18 ar  
    46    17    53 1   
    47    18    23 1   
    48    19    20 1   
    49    19    33 1   
    50    19    54 1   
    51    20    28 1   
    52    20    55 1   
    53    20    56 1   
    54    21    30 1   
    55    21    57 1   
    56    21    58 1   
    57    21    59 1   
    58    23    24 1   
    59    24    60 1   
    60    24    61 1   
    61    26    69 1   
    62    27    62 1   
    63    28    29 1   
    64    28    32 1   
    65    29    30 2   
    66    29    63 1   
    67    30    31 1   
    68    31    32 2   
    69    31    64 1   
    70    33    34 1   
    71    33    65 1   
    72    33    66 1   
    73    34    67 1   
    74    34    68 1   
    75    69    71 1   
    76    69    72 1   
@<TRIPOS>SUBSTRUCTURE
     1 7HT         1 TEMP              0 ****  ****    0 ROOT
