@<TRIPOS>MOLECULE
7HU
   66    69     1     0     0
SMALL
bcc


@<TRIPOS>ATOM
      1 C1           0.0000     0.0000     0.0000 c3         1 7HU       0.254700
      2 C3           2.0090     0.0000     1.3060 c3         1 7HU       0.208400
      3 C5           3.9820    -1.2050     0.3560 c3         1 7HU      -0.026200
      4 C7           5.8660     0.0360    -0.4610 c3         1 7HU      -0.056500
      5 C8           7.3890     0.0380    -0.6140 c3         1 7HU      -0.002100
      6 C11          3.5140     2.4220     1.2610 c3         1 7HU       0.046800
      7 C12          3.5560     3.6250     0.3550 c          1 7HU       0.577100
      8 C15          3.1720     6.0710     0.0370 c3         1 7HU       0.040000
      9 C16          2.6620     7.1540     1.0010 c3         1 7HU      -0.115300
     10 C19          2.4070     6.4210     2.2990 ca         1 7HU       0.349600
     11 C21          1.8020     6.0560     4.4960 ca         1 7HU       0.393200
     12 C22          2.1000     4.7100     4.3960 ca         1 7HU      -0.165600
     13 C23          1.9170     3.7980     5.5830 c3         1 7HU       0.096200
     14 C24          0.5210     3.2300     5.5680 ca         1 7HU      -0.095300
     15 C25          0.2650     2.0420     4.9090 ca         1 7HU      -0.098500
     16 C26         -1.0150     1.5220     4.8960 ca         1 7HU      -0.092000
     17 C27         -2.0400     2.1880     5.5410 ca         1 7HU      -0.090000
     18 C28         -1.7840     3.3760     6.2000 ca         1 7HU      -0.092000
     19 C31          2.7250     5.0860     2.1180 ca         1 7HU      -0.212700
     20 O2           1.4280     0.0000     0.0000 os         1 7HU      -0.413600
     21 C4           3.5340     0.0000     1.1860 c3         1 7HU       0.111500
     22 C9           5.4350     1.2520     0.3610 c3         1 7HU       0.133800
     23 N10          3.9740     1.2370     0.5230 n3         1 7HU      -0.489600
     24 O13          3.9310     3.5070    -0.7920 o          1 7HU      -0.622100
     25 N14          3.1750     4.8310     0.8190 n          1 7HU       0.043000
     26 C18          1.3640     7.7710     0.4720 c3         1 7HU       0.015900
     27 N20          1.9620     6.8590     3.4630 nb         1 7HU      -0.504000
     28 C29         -0.5020     3.8940     6.2190 ca         1 7HU      -0.098500
     29 C30          2.5680     4.2080     3.1950 ca         1 7HU      -0.140000
     30 H34         -0.3620    -0.0130    -1.0210 h1         1 7HU      -0.000300
     31 H32         -0.3610     0.8910     0.5000 h1         1 7HU      -0.000300
     32 H33         -0.3610    -0.8780     0.5220 h1         1 7HU      -0.000300
     33 H35          1.6900    -0.8850     1.8440 h1         1 7HU       0.014200
     34 H36          1.6890     0.8840     1.8440 h1         1 7HU       0.014200
     35 H38          3.6730    -2.1180     0.8520 hx         1 7HU       0.093700
     36 H39          3.5310    -1.1520    -0.6280 hx         1 7HU       0.093700
     37 H42          5.4000     0.0800    -1.4380 hx         1 7HU       0.110700
     38 H45          7.7020     0.9550    -1.0970 hc         1 7HU       0.036033
     39 H43          7.6920    -0.8100    -1.2180 hc         1 7HU       0.036033
     40 H44          7.8500    -0.0320     0.3630 hc         1 7HU       0.036033
     41 H49          2.4990     2.2620     1.6030 h1         1 7HU       0.055200
     42 H48          4.1610     2.5890     2.1140 h1         1 7HU       0.055200
     43 H51          2.4850     5.9740    -0.7950 h1         1 7HU       0.044200
     44 H50          4.1820     6.3080    -0.2730 h1         1 7HU       0.044200
     45 H58          1.4350     6.4560     5.4330 h4         1 7HU      -0.005900
     46 H60          2.0690     4.3600     6.4960 hc         1 7HU       0.024200
     47 H59          2.6360     2.9900     5.5320 hc         1 7HU       0.024200
     48 H61          1.0680     1.5200     4.4030 ha         1 7HU       0.097000
     49 H62         -1.2160     0.5910     4.3790 ha         1 7HU       0.105000
     50 H63         -3.0440     1.7810     5.5280 ha         1 7HU       0.110000
     51 H64         -2.5860     3.8980     6.7080 ha         1 7HU       0.105000
     52 H37          3.9800    -0.0560     2.1720 h1         1 7HU       0.021700
     53 H47          5.9060     1.2140     1.3360 h1         1 7HU       0.053700
     54 H46          5.7310     2.1580    -0.1540 h1         1 7HU       0.053700
     55 H52          4.6040     7.7980     1.6560 hc         1 7HU       0.014867
     56 H53          3.9920     8.6600     0.2380 hc         1 7HU       0.014867
     57 H54          3.3330     9.0150     1.8410 hc         1 7HU       0.014867
     58 H57          0.6080     7.0010     0.3830 hc         1 7HU       0.014867
     59 H55          1.0220     8.5350     1.1600 hc         1 7HU       0.014867
     60 H56          1.5440     8.2140    -0.4990 hc         1 7HU       0.014867
     61 H65         -0.3020     4.8250     6.7350 ha         1 7HU       0.097000
     62 H66          2.8080     3.1570     3.0920 ha         1 7HU       0.117000
     63 N6           5.4440    -1.1930     0.2240 ny         1 7HU       0.034000
     64 H41          5.7360    -1.9870    -0.3110 hn         1 7HU       0.237300
     65 C17          3.7250     8.2360     1.1980 c3         1 7HU       0.015900
     66 H40          5.8600    -1.2250     1.1340 hn         1 7HU       0.237300
@<TRIPOS>BOND
     1     1    20 1   
     2     1    30 1   
     3     1    31 1   
     4     1    32 1   
     5     2    20 1   
     6     2    21 1   
     7     2    33 1   
     8     2    34 1   
     9     3    21 1   
    10     3    35 1   
    11     3    36 1   
    12     3    63 1   
    13     4     5 1   
    14     4    22 1   
    15     4    37 1   
    16     4    63 1   
    17     5    38 1   
    18     5    39 1   
    19     5    40 1   
    20     6     7 1   
    21     6    23 1   
    22     6    41 1   
    23     6    42 1   
    24     7    24 2   
    25     7    25 1   
    26     8     9 1   
    27     8    25 1   
    28     8    43 1   
    29     8    44 1   
    30     9    10 1   
    31     9    26 1   
    32     9    65 1   
    33    10    19 ar  
    34    10    27 ar  
    35    11    12 ar  
    36    11    27 ar  
    37    11    45 1   
    38    12    13 1   
    39    12    29 ar  
    40    13    14 1   
    41    13    46 1   
    42    13    47 1   
    43    14    15 ar  
    44    14    28 ar  
    45    15    16 ar  
    46    15    48 1   
    47    16    17 ar  
    48    16    49 1   
    49    17    18 ar  
    50    17    50 1   
    51    18    28 ar  
    52    18    51 1   
    53    19    25 1   
    54    19    29 ar  
    55    21    23 1   
    56    21    52 1   
    57    22    23 1   
    58    22    53 1   
    59    22    54 1   
    60    26    58 1   
    61    26    59 1   
    62    26    60 1   
    63    28    61 1   
    64    29    62 1   
    65    55    65 1   
    66    56    65 1   
    67    57    65 1   
    68    63    64 1   
    69    63    66 1   
@<TRIPOS>SUBSTRUCTURE
     1 7HU         1 TEMP              0 ****  ****    0 ROOT
