@<TRIPOS>MOLECULE
molecule
   66    69     1     0     0
SMALL
bcc


@<TRIPOS>ATOM
      1 C1           0.0000     0.0000     0.0000 c3         1 7HU       0.124700
      2 C3           2.0090     0.0000     1.3060 c3         1 7HU       0.143400
      3 C5           3.9820    -1.2050     0.3560 c3         1 7HU       0.108800
      4 C7           5.8660     0.0360    -0.4610 c3         1 7HU       0.107500
      5 C8           7.3890     0.0380    -0.6140 c3         1 7HU      -0.121100
      6 C11          3.5140     2.4220     1.2610 c3         1 7HU       0.078800
      7 C12          3.5560     3.6250     0.3550 c          1 7HU       0.674100
      8 C15          3.1720     6.0710     0.0370 c3         1 7HU       0.114000
      9 C16          2.6620     7.1540     1.0010 c3         1 7HU      -0.121300
     10 C19          2.4070     6.4210     2.2990 ca         1 7HU       0.407600
     11 C21          1.8020     6.0560     4.4960 ca         1 7HU       0.417200
     12 C22          2.1000     4.7100     4.3960 ca         1 7HU      -0.168600
     13 C23          1.9170     3.7980     5.5830 c3         1 7HU       0.014200
     14 C24          0.5210     3.2300     5.5680 ca         1 7HU      -0.085300
     15 C25          0.2650     2.0420     4.9090 ca         1 7HU      -0.124000
     16 C26         -1.0150     1.5220     4.8960 ca         1 7HU      -0.120500
     17 C27         -2.0400     2.1880     5.5410 ca         1 7HU      -0.119000
     18 C28         -1.7840     3.3760     6.2000 ca         1 7HU      -0.120500
     19 C31          2.7250     5.0860     2.1180 ca         1 7HU      -0.081700
     20 O2           1.4280     0.0000     0.0000 os         1 7HU      -0.425600
     21 C4           3.5340     0.0000     1.1860 c3         1 7HU       0.153500
     22 C9           5.4350     1.2520     0.3610 c3         1 7HU       0.143800
     23 N10          3.9740     1.2370     0.5230 n3         1 7HU      -0.695600
     24 O13          3.9310     3.5070    -0.7920 o          1 7HU      -0.575100
     25 N14          3.1750     4.8310     0.8190 n          1 7HU      -0.364000
     26 C18          1.3640     7.7710     0.4720 c3         1 7HU      -0.078100
     27 N20          1.9620     6.8590     3.4630 nb         1 7HU      -0.639000
     28 C29         -0.5020     3.8940     6.2190 ca         1 7HU      -0.124000
     29 C30          2.5680     4.2080     3.1950 ca         1 7HU      -0.151000
     30 H34         -0.3620    -0.0130    -1.0210 h1         1 7HU       0.045367
     31 H32         -0.3610     0.8910     0.5000 h1         1 7HU       0.045367
     32 H33         -0.3610    -0.8780     0.5220 h1         1 7HU       0.045367
     33 H35          1.6900    -0.8850     1.8440 h1         1 7HU       0.047200
     34 H36          1.6890     0.8840     1.8440 h1         1 7HU       0.047200
     35 H38          3.6730    -2.1180     0.8520 hx         1 7HU       0.120700
     36 H39          3.5310    -1.1520    -0.6280 hx         1 7HU       0.120700
     37 H42          5.4000     0.0800    -1.4380 hx         1 7HU       0.136700
     38 H45          7.7020     0.9550    -1.0970 hc         1 7HU       0.074033
     39 H43          7.6920    -0.8100    -1.2180 hc         1 7HU       0.074033
     40 H44          7.8500    -0.0320     0.3630 hc         1 7HU       0.074033
     41 H49          2.4990     2.2620     1.6030 h1         1 7HU       0.076200
     42 H48          4.1610     2.5890     2.1140 h1         1 7HU       0.076200
     43 H51          2.4850     5.9740    -0.7950 h1         1 7HU       0.073200
     44 H50          4.1820     6.3080    -0.2730 h1         1 7HU       0.073200
     45 H58          1.4350     6.4560     5.4330 h4         1 7HU       0.037100
     46 H60          2.0690     4.3600     6.4960 hc         1 7HU       0.059200
     47 H59          2.6360     2.9900     5.5320 hc         1 7HU       0.059200
     48 H61          1.0680     1.5200     4.4030 ha         1 7HU       0.120500
     49 H62         -1.2160     0.5910     4.3790 ha         1 7HU       0.133000
     50 H63         -3.0440     1.7810     5.5280 ha         1 7HU       0.139000
     51 H64         -2.5860     3.8980     6.7080 ha         1 7HU       0.133000
     52 H37          3.9800    -0.0560     2.1720 h1         1 7HU       0.040700
     53 H47          5.9060     1.2140     1.3360 h1         1 7HU       0.080200
     54 H46          5.7310     2.1580    -0.1540 h1         1 7HU       0.080200
     55 H52          4.6040     7.7980     1.6560 hc         1 7HU       0.049200
     56 H53          3.9920     8.6600     0.2380 hc         1 7HU       0.049200
     57 H54          3.3330     9.0150     1.8410 hc         1 7HU       0.049200
     58 H57          0.6080     7.0010     0.3830 hc         1 7HU       0.049200
     59 H55          1.0220     8.5350     1.1600 hc         1 7HU       0.049200
     60 H56          1.5440     8.2140    -0.4990 hc         1 7HU       0.049200
     61 H65         -0.3020     4.8250     6.7350 ha         1 7HU       0.120500
     62 H66          2.8080     3.1570     3.0920 ha         1 7HU       0.125000
     63 N6           5.4440    -1.1930     0.2240 ny         1 7HU      -0.735000
     64 H41          5.7360    -1.9870    -0.3110 hn         1 7HU       0.444800
     65 C17          3.7250     8.2360     1.1980 c3         1 7HU      -0.078100
     66 H40          5.8600    -1.2250     1.1340 hn         1 7HU       0.444800
@<TRIPOS>BOND
     1    18    28 ar  
     2    18    17 ar  
     3    28    14 ar  
     4    27    11 ar  
     5    27    10 ar  
     6    11    12 ar  
     7    65     9 1   
     8    17    16 ar  
     9    26     9 1   
    10    10     9 1   
    11    10    19 ar  
    12     9     8 1   
    13    14    13 1   
    14    14    15 ar  
    15    12    13 1   
    16    12    29 ar  
    17    16    15 ar  
    18    19    29 ar  
    19    19    25 1   
    20     8    25 1   
    21    25     7 1   
    22     7    24 2   
    23     7     6 1   
    24     1    20 1   
    25     6    23 1   
    26    20     2 1   
    27    23    22 1   
    28    23    21 1   
    29     2    21 1   
    30    22     4 1   
    31    21     3 1   
    32     4     5 1   
    33     4    63 1   
    34     3    63 1   
    35     1    30 1   
    36     1    31 1   
    37     1    32 1   
    38     2    33 1   
    39     2    34 1   
    40     3    35 1   
    41     3    36 1   
    42     4    37 1   
    43     5    38 1   
    44     5    39 1   
    45     5    40 1   
    46     6    41 1   
    47     6    42 1   
    48     8    43 1   
    49     8    44 1   
    50    11    45 1   
    51    13    46 1   
    52    13    47 1   
    53    15    48 1   
    54    16    49 1   
    55    17    50 1   
    56    18    51 1   
    57    21    52 1   
    58    63    66 1   
    59    22    53 1   
    60    22    54 1   
    61    65    55 1   
    62    65    56 1   
    63    65    57 1   
    64    26    58 1   
    65    26    59 1   
    66    26    60 1   
    67    28    61 1   
    68    29    62 1   
    69    63    64 1   
@<TRIPOS>SUBSTRUCTURE
     1 7HU         1 TEMP              0 ****  ****    0 ROOT
