@<TRIPOS>MOLECULE
7HV
   26    26     1     0     0
SMALL
bcc


@<TRIPOS>ATOM
      1 CAH          0.0000     0.0000     0.0000 ca         1 7HV      -0.088000
      2 CAO          1.3840     0.0000     0.0000 ca         1 7HV      -0.036600
      3 ClE          2.2520    -0.0000    -1.5020 cl         1 7HV      -0.023400
      4 CAN          2.0750     0.0000     1.2000 ca         1 7HV      -0.042600
      5 ClD          3.8110     0.0010     1.2020 cl         1 7HV      -0.029400
      6 CAG          1.3810     0.0020     2.3970 ca         1 7HV      -0.096000
      7 CAF         -0.0010     0.0010     2.3950 ca         1 7HV      -0.068000
      8 CAM         -0.6920     0.0010     1.1970 ca         1 7HV      -0.064300
      9 CAK         -2.1980     0.0080     1.1960 c3         1 7HV       0.197100
     10 NAL         -2.6950    -1.3740     1.1920 n7         1 7HV      -0.595200
     11 CAI         -4.1630    -1.4060     1.1910 c3         1 7HV       0.174800
     12 CAJ         -4.6410    -2.8600     1.1880 c3         1 7HV      -0.056600
     13 SAP         -6.4550    -2.8990     1.1870 s6         1 7HV       0.957800
     14 OAC         -6.8020    -4.3820     1.1830 o          1 7HV      -0.658867
     15 OAB         -6.9650    -2.4230     2.4240 o          1 7HV      -0.658867
     16 OAA         -6.9630    -2.4170    -0.0490 o          1 7HV      -0.658867
     17 H1          -0.5410     0.0000    -0.9380 ha         1 7HV       0.121000
     18 H2           1.9210     0.0020     3.3360 ha         1 7HV       0.112000
     19 H3          -0.5430     0.0020     3.3320 ha         1 7HV       0.117000
     20 H4          -2.5560     0.5230     0.3130 h1         1 7HV       0.009200
     21 H5          -2.5570     0.5180     2.0820 h1         1 7HV       0.009200
     22 H6          -2.3500    -1.8500     0.3810 hn         1 7HV       0.252800
     23 H8          -4.5350    -0.9060     2.0770 h1         1 7HV       0.011200
     24 H9          -4.5350    -0.9010     0.3080 h1         1 7HV       0.011200
     25 H10         -4.2690    -3.3640     2.0710 h1         1 7HV       0.052200
     26 H11         -4.2680    -3.3600     0.3020 h1         1 7HV       0.052200
@<TRIPOS>BOND
     1     1     2 ar  
     2     1     8 ar  
     3     1    17 1   
     4     2     3 1   
     5     2     4 ar  
     6     4     5 1   
     7     4     6 ar  
     8     6     7 ar  
     9     6    18 1   
    10     7     8 ar  
    11     7    19 1   
    12     8     9 1   
    13     9    10 1   
    14     9    20 1   
    15     9    21 1   
    16    10    11 1   
    17    10    22 1   
    18    11    12 1   
    19    11    23 1   
    20    11    24 1   
    21    12    13 1   
    22    12    25 1   
    23    12    26 1   
    24    13    14 1   
    25    13    15 1   
    26    13    16 1   
@<TRIPOS>SUBSTRUCTURE
     1 7HV         1 TEMP              0 ****  ****    0 ROOT
