@<TRIPOS>MOLECULE
molecule
   59    58     1     0     0
SMALL
bcc


@<TRIPOS>ATOM
      1 C1           0.0000     0.0000     0.0000 c3         1 7HW      -0.094100
      2 C2           1.5300     0.0000     0.0000 c3         1 7HW      -0.096400
      3 C4           3.5650     0.1250     1.4440 c3         1 7HW       0.137100
      4 C12          4.6080     4.4550     7.7370 c2         1 7HW      -0.152200
      5 C13          4.8250     5.6670     8.1830 c2         1 7HW      -0.254200
      6 C14          5.7320     6.5980     7.4210 c3         1 7HW      -0.002000
      7 C15          5.0060     7.8890     7.1420 c2         1 7HW      -0.257200
      8 C16          5.5430     9.0310     7.4930 c2         1 7HW      -0.200200
      9 C17          6.9580     9.0730     8.0090 c3         1 7HW       0.263000
     10 C18          7.7570    10.0680     7.2080 c2         1 7HW      -0.219200
     11 O4           9.1060    11.0540    11.9050 o          1 7HW      -0.847800
     12 C22         10.1040    11.1150    11.2270 c          1 7HW       0.884600
     13 O3          11.3100    11.1900    11.8130 o          1 7HW      -0.847800
     14 C21          9.9960    11.1160     9.7240 c3         1 7HW      -0.195400
     15 C20          8.5220    11.0230     9.3190 c3         1 7HW       0.042800
     16 C19          8.4140    11.0230     7.8170 c2         1 7HW      -0.222200
     17 C11          5.3860     3.9360     6.5550 c3         1 7HW       0.045000
     18 C10          6.0390     2.6280     6.9170 c2         1 7HW      -0.182200
     19 C9           5.8880     1.5820     6.1430 c2         1 7HW      -0.190200
     20 C8           5.2160     1.7300     4.8020 c3         1 7HW       0.277000
     21 C7           6.0830     1.1130     3.7350 c2         1 7HW      -0.186200
     22 C5           4.0850     0.0010     2.8780 c3         1 7HW      -0.004200
     23 O2           4.1290    -0.9130     0.6400 oh         1 7HW      -0.581800
     24 C3           2.0410     0.0000     1.4430 c3         1 7HW       0.137100
     25 O1           1.6630    -1.2210     2.0810 oh         1 7HW      -0.588800
     26 H1          -0.3610     0.2220    -0.9970 hc         1 7HW       0.033700
     27 H2          -0.3610     0.7530     0.6900 hc         1 7HW       0.033700
     28 H3          -0.3610    -0.9740     0.3060 hc         1 7HW       0.033700
     29 H4           1.8910    -0.8840    -0.5110 hc         1 7HW       0.057200
     30 H5           1.8910     0.8840    -0.5110 hc         1 7HW       0.057200
     31 H6           3.8480     1.0890     1.0400 h1         1 7HW       0.042700
     32 H7           5.1170    -0.4540     3.5860 ha         1 7HW       0.128000
     33 H8           4.3000     4.6760     6.7220 ha         1 7HW       0.083000
     34 H10          4.6440     6.1280     7.2200 ha         1 7HW       0.206000
     35 H12          6.0200     6.1360     6.4850 hc         1 7HW       0.065200
     36 H13          6.6180     6.8020     8.0110 hc         1 7HW       0.065200
     37 H14          5.7600     7.5180     6.4580 ha         1 7HW       0.078000
     38 H16          5.7590     8.8340     8.5370 ha         1 7HW       0.038000
     39 H18          7.4060     8.0910     7.9150 hc         1 7HW       0.069200
     40 H19          6.9540     9.3690     9.0510 hc         1 7HW       0.069200
     41 H20          8.2320     9.1950     7.6390 ha         1 7HW       0.012000
     42 H22         10.5350    10.2660     9.3220 hc         1 7HW       0.046700
     43 H23         10.4210    12.0320     9.3310 hc         1 7HW       0.046700
     44 H24          8.0970    10.1070     9.7120 hc         1 7HW       0.064700
     45 H25          7.9830    11.8730     9.7200 hc         1 7HW       0.064700
     46 H26          7.6260    11.4440     8.4290 ha         1 7HW       0.133000
     47 H27          6.1470     4.6560     6.2800 hc         1 7HW       0.033700
     48 H28          4.7130     3.7850     5.7190 hc         1 7HW       0.033700
     49 H29          6.5180     3.3140     6.2300 ha         1 7HW       0.076000
     50 H30          4.8080     1.5530     6.0580 ha         1 7HW       0.008000
     51 H31          5.0700     2.7810     4.5850 hc         1 7HW       0.044700
     52 H32          4.2560     1.2280     4.8220 hc         1 7HW       0.044700
     53 H33          5.4710     1.9800     3.5190 ha         1 7HW      -0.013000
     54 H34          3.5910     0.7320     3.5060 hc         1 7HW       0.056200
     55 H35          3.8790    -0.9950     3.2520 hc         1 7HW       0.056200
     56 H36          4.8240    -0.5580     0.1100 ho         1 7HW       0.405000
     57 H37          1.6090     0.8370     1.9780 h1         1 7HW       0.029700
     58 H38          1.0210    -1.0410     2.7490 ho         1 7HW       0.395000
     59 C6           5.5720     0.2460     2.8950 c2         1 7HW      -0.259200
@<TRIPOS>BOND
     1    16    10 2
     2    16    15 1
     3    10     9 1
     4    14    15 1
     5    14    12 1
     6    12    11 1
     7    12    13 1
     8     9     8 1
     9     8     7 2
    10     7     6 1
    11     6     5 1
    12     5     4 2
    13     4    17 1
    14    17    18 1
    15    18    19 2
    16    21    20 1
    17    21    59 2
    18    19    20 1
    19    59    22 1
    20    22     3 1
    21     3    24 1
    22     3    23 1
    23    24     2 1
    24     2     1 1
    25    24    25 1
    26     1    26 1
    27     1    27 1
    28     1    28 1
    29     2    29 1
    30     2    30 1
    31     3    31 1
    32    59    32 1
    33     4    33 1
    34     5    34 1
    35     6    35 1
    36     6    36 1
    37     7    37 1
    38     8    38 1
    39     9    39 1
    40     9    40 1
    41    10    41 1
    42    14    42 1
    43    14    43 1
    44    15    44 1
    45    15    45 1
    46    16    46 1
    47    17    47 1
    48    17    48 1
    49    18    49 1
    50    19    50 1
    51    20    51 1
    52    20    52 1
    53    21    53 1
    54    22    54 1
    55    22    55 1
    56    23    56 1
    57    24    57 1
    58    25    58 1
@<TRIPOS>SUBSTRUCTURE
     1 7HW         1 TEMP              0 ****  ****    0 ROOT
