@<TRIPOS>MOLECULE
molecule
   15    16     1     0     0
SMALL
bcc


@<TRIPOS>ATOM
      1 O6           0.0000     0.0000     0.0000 oh         1 7HX      -0.608300
      2 C6           1.3540     0.0000     0.0000 ca         1 7HX       0.724600
      3 N1           2.0340     0.0000     1.1400 nb         1 7HX      -0.828000
      4 C2           3.3560    -0.0010     1.1450 ca         1 7HX       0.728900
      5 N3           4.0710    -0.0020     0.0420 nb         1 7HX      -0.776000
      6 C4           3.4790    -0.0020    -1.1500 ca         1 7HX       0.505800
      7 C5           2.0710    -0.0070    -1.2040 ca         1 7HX      -0.360400
      8 N9           3.9300    -0.0010    -2.4420 na         1 7HX      -0.272100
      9 C8           2.8690    -0.0020    -3.3110 cc         1 7HX      -0.111100
     10 C7           1.7160    -0.0130    -2.6220 cd         1 7HX      -0.156200
     11 H2           3.8710    -0.0010     2.0980 h5         1 7HX       0.062100
     12 H3           4.8930     0.0060    -2.7130 hn         1 7HX       0.308700
     13 H4           2.9490     0.0060    -4.3910 h4         1 7HX       0.174000
     14 H5           0.7160    -0.0160    -3.0370 ha         1 7HX       0.165000
     15 H6          -0.3140     0.6380     0.6190 ho         1 7HX       0.441000
@<TRIPOS>BOND
     1     1     2 1
     2    10     9 2
     3    10     7 1
     4     9     8 1
     5     2     7 ar
     6     2     3 ar
     7     7     6 ar
     8     3     4 ar
     9     8     6 1
    10     6     5 ar
    11     4     5 ar
    12     4    11 1
    13     8    12 1
    14     9    13 1
    15    10    14 1
    16     1    15 1
@<TRIPOS>SUBSTRUCTURE
     1 7HX         1 TEMP              0 ****  ****    0 ROOT
