@<TRIPOS>MOLECULE
7HY
   77    79     1     0     0
SMALL
bcc


@<TRIPOS>ATOM
      1 C30          0.0000     0.0000     0.0000 c          1 7HY       0.589100
      2 O39          1.2140     0.0000     0.0000 o          1 7HY      -0.653100
      3 C31         -0.7530     0.0000     1.3050 c3         1 7HY      -0.093400
      4 C32          0.2420    -0.0010     2.4680 c3         1 7HY       0.042900
      5 C33         -0.5110    -0.0010     3.7740 ca         1 7HY      -0.091300
      6 C34         -0.8630     1.1960     4.3690 ca         1 7HY      -0.098500
      7 C35         -1.5540     1.1950     5.5660 ca         1 7HY      -0.101000
      8 C36         -1.8950    -0.0020     6.1670 ca         1 7HY      -0.108000
      9 C37         -1.5440    -1.1990     5.5710 ca         1 7HY      -0.101000
     10 C38         -0.8570    -1.1970     4.3720 ca         1 7HY      -0.098500
     11 C02          0.3790     1.5680    -2.6970 c          1 7HY       0.558100
     12 C20          0.0550     0.1210    -2.4330 c3         1 7HY      -0.034300
     13 C21         -0.8110    -0.4230    -3.5710 c3         1 7HY      -0.118400
     14 C22         -1.0210    -1.9040    -3.3790 c          1 7HY       0.582100
     15 N23         -1.8420    -2.5810    -4.2050 n          1 7HY      -0.154800
     16 C26         -2.5340    -1.8780    -5.2890 c3         1 7HY       0.046000
     17 C27         -1.6650    -1.9040    -6.5480 c3         1 7HY      -0.020600
     18 C24         -2.0460    -4.0200    -4.0180 c3         1 7HY       0.046000
     19 C25         -3.2260    -4.2500    -3.0710 c3         1 7HY      -0.020600
     20 O28         -0.4480    -2.4860    -2.4810 o          1 7HY      -0.637100
     21 N29         -0.6740     0.0060    -1.1670 ns         1 7HY      -0.150900
     22 N03          1.0500     1.9160    -3.8120 ns         1 7HY      -0.173900
     23 C04          1.3650     3.3240    -4.0690 c3         1 7HY      -0.052300
     24 C05          1.5350     3.5390    -5.5510 c          1 7HY       0.564100
     25 O18          1.4050     2.6080    -6.3170 o          1 7HY      -0.662100
     26 C19          2.6630     3.6950    -3.3480 c3         1 7HY      -0.014100
     27 C11          2.8810     9.1150    -8.2260 ca         1 7HY      -0.073000
     28 C10          1.6260     8.6180    -8.3970 ca         1 7HY      -0.107000
     29 C12          3.9150     8.2630    -7.8000 ca         1 7HY      -0.039000
     30 C14          4.6610     6.0450    -7.1210 ca         1 7HY      -0.108000
     31 C13          3.6280     6.8970    -7.5470 ca         1 7HY      -0.019000
     32 C15          5.9190     6.5410    -6.9560 ca         1 7HY      -0.087000
     33 N06          1.8300     4.7660    -6.0250 ns         1 7HY      -0.182900
     34 C07          1.9940     4.9740    -7.4650 c3         1 7HY       0.107300
     35 C08          2.3190     6.4220    -7.7290 ca         1 7HY      -0.120300
     36 C09          1.3470     7.2740    -8.1540 ca         1 7HY      -0.074000
     37 C16          6.2000     7.8830    -7.2050 ca         1 7HY      -0.099000
     38 C17          5.2240     8.7370    -7.6190 ca         1 7HY      -0.083000
     39 H30         -1.3750     0.8850     1.3630 hc         1 7HY       0.029700
     40 H31         -1.3770    -0.8840     1.3630 hc         1 7HY       0.029700
     41 H33          0.8640    -0.8860     2.4110 hc         1 7HY       0.034200
     42 H32          0.8650     0.8830     2.4110 hc         1 7HY       0.034200
     43 H34         -0.5960     2.1340     3.8980 ha         1 7HY       0.107000
     44 H35         -1.8290     2.1330     6.0340 ha         1 7HY       0.100000
     45 H36         -2.4350    -0.0030     7.1060 ha         1 7HY       0.100000
     46 H37         -1.8130    -2.1380     6.0410 ha         1 7HY       0.100000
     47 H38         -0.5830    -2.1350     3.9040 ha         1 7HY       0.107000
     48 H16          0.9740    -0.4500    -2.3740 h1         1 7HY       0.088700
     49 H17         -0.3150    -0.2490    -4.5180 hc         1 7HY       0.044700
     50 H18         -1.7700     0.0800    -3.5680 hc         1 7HY       0.044700
     51 H24         -2.7150    -0.8510    -4.9960 h1         1 7HY       0.029450
     52 H25         -3.4780    -2.3670    -5.4920 h1         1 7HY       0.029450
     53 H26         -1.6890    -0.9310    -7.0240 hc         1 7HY       0.011200
     54 H27         -0.6440    -2.1480    -6.2780 hc         1 7HY       0.011200
     55 H28         -2.0450    -2.6510    -7.2340 hc         1 7HY       0.011200
     56 H19         -1.1510    -4.4590    -3.5940 h1         1 7HY       0.029450
     57 H20         -2.2560    -4.4820    -4.9750 h1         1 7HY       0.029450
     58 H21         -2.8600    -4.6250    -2.1230 hc         1 7HY       0.011200
     59 H22         -3.9040    -4.9730    -3.5080 hc         1 7HY       0.011200
     60 H23         -3.7480    -3.3140    -2.9120 hc         1 7HY       0.011200
     61 H29         -1.6740    -0.0280    -1.1670 hn         1 7HY       0.169500
     62 H7           1.3700     1.2090    -4.4440 hn         1 7HY       0.196500
     63 H8           0.5580     3.9480    -3.7040 h1         1 7HY       0.065700
     64 H13          2.7490     4.7730    -3.2910 hc         1 7HY       0.018033
     65 H14          2.6520     3.2800    -2.3480 hc         1 7HY       0.018033
     66 H15          3.5080     3.2940    -3.8960 hc         1 7HY       0.018033
     67 H1           0.8330     9.2740    -8.7350 ha         1 7HY       0.105000
     68 H3           4.4580     5.0000    -6.9230 ha         1 7HY       0.115000
     69 H4           6.7130     5.8810    -6.6270 ha         1 7HY       0.103000
     70 H10          2.8010     4.3510    -7.8310 h1         1 7HY       0.032700
     71 H11          1.0750     4.7120    -7.9750 h1         1 7HY       0.032700
     72 H12          0.3390     6.9040    -8.2980 ha         1 7HY       0.106000
     73 H5           7.2090     8.2520    -7.0660 ha         1 7HY       0.104000
     74 H6           5.4570     9.7780    -7.8090 ha         1 7HY       0.107000
     75 H9           1.8830     5.5440    -5.3980 hn         1 7HY       0.185500
     76 H2           3.0820    10.1620    -8.4200 ha         1 7HY       0.108000
     77 O01          0.0350     2.4210    -1.9060 o          1 7HY      -0.650100
@<TRIPOS>BOND
     1     1     2 2   
     2     1     3 1   
     3     1    21 1   
     4     3     4 1   
     5     3    39 1   
     6     3    40 1   
     7     4     5 1   
     8     4    41 1   
     9     4    42 1   
    10     5     6 ar  
    11     5    10 ar  
    12     6     7 ar  
    13     6    43 1   
    14     7     8 ar  
    15     7    44 1   
    16     8     9 ar  
    17     8    45 1   
    18     9    10 ar  
    19     9    46 1   
    20    10    47 1   
    21    11    12 1   
    22    11    22 1   
    23    11    77 2   
    24    12    13 1   
    25    12    21 1   
    26    12    48 1   
    27    13    14 1   
    28    13    49 1   
    29    13    50 1   
    30    14    15 1   
    31    14    20 2   
    32    15    16 1   
    33    15    18 1   
    34    16    17 1   
    35    16    51 1   
    36    16    52 1   
    37    17    53 1   
    38    17    54 1   
    39    17    55 1   
    40    18    19 1   
    41    18    56 1   
    42    18    57 1   
    43    19    58 1   
    44    19    59 1   
    45    19    60 1   
    46    21    61 1   
    47    22    23 1   
    48    22    62 1   
    49    23    24 1   
    50    23    26 1   
    51    23    63 1   
    52    24    25 2   
    53    24    33 1   
    54    26    64 1   
    55    26    65 1   
    56    26    66 1   
    57    27    28 ar  
    58    27    29 ar  
    59    27    76 1   
    60    28    36 ar  
    61    28    67 1   
    62    29    31 ar  
    63    29    38 ar  
    64    30    31 ar  
    65    30    32 ar  
    66    30    68 1   
    67    31    35 ar  
    68    32    37 ar  
    69    32    69 1   
    70    33    34 1   
    71    33    75 1   
    72    34    35 1   
    73    34    70 1   
    74    34    71 1   
    75    35    36 ar  
    76    36    72 1   
    77    37    38 ar  
    78    37    73 1   
    79    38    74 1   
@<TRIPOS>SUBSTRUCTURE
     1 7HY         1 TEMP              0 ****  ****    0 ROOT
