@<TRIPOS>MOLECULE
7I1
   58    62     1     0     0
SMALL
bcc


@<TRIPOS>ATOM
      1 O2          0.7760    2.4950   -0.2010 o         1 7I1     -0.465100
      2 C14         1.7740    1.7880   -0.3270 c         1 7I1      0.597300
      3 N1          2.6050    1.6220    0.9260 n4        1 7I1     -0.668800
      4 C15         2.2880    0.3280    1.6220 c3        1 7I1      0.180100
      5 C16         3.0320    0.2210    2.9080 ca        1 7I1     -0.185300
      6 C25         2.6160    0.9760    4.0460 ca        1 7I1     -0.014000
      7 C24         1.4940    1.8500    4.0320 ca        1 7I1     -0.178000
      8 C23         1.1430    2.5630    5.1540 ca        1 7I1     -0.077000
      9 C22         1.8930    2.4420    6.3480 ca        1 7I1     -0.122000
     10 C21         2.9730    1.5960    6.3960 ca        1 7I1     -0.092000
     11 C20         3.3560    0.8420    5.2520 ca        1 7I1     -0.047000
     12 C19         4.4630   -0.0470    5.3040 ca        1 7I1     -0.057000
     13 C18         4.8300   -0.7750    4.1970 ca        1 7I1     -0.146000
     14 C17         4.1130   -0.6350    2.9900 ca        1 7I1     -0.062000
     15 C2          2.2420    1.1200   -1.4970 cc        1 7I1     -0.196100
     16 O           3.4360    0.3460   -1.3940 os        1 7I1     -0.229200
     17 C3          3.6450   -0.1790   -2.6690 ca        1 7I1      0.157100
     18 C13         2.6080    0.2470   -3.5610 ca        1 7I1     -0.213800
     19 C1          1.7190    1.0840   -2.7930 cd        1 7I1      0.166600
     20 C           0.5230    1.7580   -3.2900 c3        1 7I1     -0.091900
     21 C7          2.6470   -0.1970   -4.9000 ca        1 7I1      0.250100
     22 C6          3.7060   -1.0340   -5.2900 ca        1 7I1     -0.243000
     23 C5          4.6970   -1.4170   -4.3830 ca        1 7I1     -0.009000
     24 C4          4.6950   -1.0010   -3.0480 ca        1 7I1     -0.188000
     25 O1          1.6350    0.2460   -5.6960 os        1 7I1     -0.322900
     26 C8          1.6120   -0.1800   -7.0810 c3        1 7I1      0.141100
     27 C12         0.6970    0.8260   -7.7750 c3        1 7I1     -0.094900
     28 C11         0.4430    0.3880   -9.2170 c3        1 7I1      0.166800
     29 N          -0.0560   -0.9690   -9.3120 n3        1 7I1     -0.825200
     30 C10         0.7820   -1.9460   -8.6480 c3        1 7I1      0.166800
     31 C9          1.0520   -1.5920   -7.1850 c3        1 7I1     -0.094900
     32 H1          2.4100    2.4000    1.5710 hn        1 7I1      0.462800
     33 H151        2.5700   -0.5060    0.9130 hx        1 7I1      0.110700
     34 H152        1.1730    0.2970    1.7940 hx        1 7I1      0.110700
     35 H17         4.4270   -1.2300    2.1160 ha        1 7I1      0.141000
     36 H24         0.8720    1.9340    3.1290 ha        1 7I1      0.118000
     37 H23         0.2670    3.2320    5.1390 ha        1 7I1      0.150000
     38 H22         1.5940    3.0260    7.2320 ha        1 7I1      0.156000
     39 H21         3.5600    1.4820    7.3220 ha        1 7I1      0.152000
     40 H19         5.0200   -0.1440    6.2510 ha        1 7I1      0.156000
     41 H18         5.6820   -1.4720    4.2380 ha        1 7I1      0.157000
     42 H4          5.4780   -1.3080   -2.3430 ha        1 7I1      0.167000
     43 HC1        -0.0050    1.1100   -4.0380 hc        1 7I1      0.091033
     44 HC2         0.8180    2.7060   -3.8150 hc        1 7I1      0.091033
     45 HC3        -0.1780    2.0200   -2.4560 hc        1 7I1      0.091033
     46 H6          3.7640   -1.4060   -6.3240 ha        1 7I1      0.163000
     47 H5          5.5130   -2.0730   -4.7330 ha        1 7I1      0.160000
     48 H8          2.6500   -0.1180   -7.5090 h1        1 7I1      0.059700
     49 H121       -0.2700    0.8970   -7.2120 hc        1 7I1      0.064200
     50 H122        1.1740    1.8380   -7.7750 hc        1 7I1      0.064200
     51 H91C        1.7760   -2.3310   -6.7580 hc        1 7I1      0.064200
     52 H92C        0.1030   -1.6570   -6.5920 hc        1 7I1      0.064200
     53 H111        1.3990    0.5340   -9.8020 h1        1 7I1      0.040200
     54 H112       -0.3380    1.0660   -9.6640 h1        1 7I1      0.040200
     55 H          -0.2000   -1.2240  -10.2710 hn        1 7I1      0.381800
     56 H101        1.7780   -2.0780   -9.1660 h1        1 7I1      0.040200
     57 H102        0.2430   -2.9340   -8.6850 h1        1 7I1      0.040200
     58 H12         3.6010    1.6340    0.6800 hn        1 7I1      0.462800
@<TRIPOS>BOND
     1    1    2 2
     2    2    3 1
     3    2   15 1
     4    3    4 1
     5    3   32 1
     6    3   58 1
     7    4    5 1
     8    4   33 1
     9    4   34 1
    10    5    6 ar
    11    5   14 ar
    12    6    7 ar
    13    6   11 ar
    14    7    8 ar
    15    7   36 1
    16    8    9 ar
    17    8   37 1
    18    9   10 ar
    19    9   38 1
    20   10   11 ar
    21   10   39 1
    22   11   12 ar
    23   12   13 ar
    24   12   40 1
    25   13   14 ar
    26   13   41 1
    27   14   35 1
    28   15   16 1
    29   15   19 2
    30   16   17 1
    31   17   18 ar
    32   17   24 ar
    33   18   19 1
    34   18   21 ar
    35   19   20 1
    36   20   43 1
    37   20   44 1
    38   20   45 1
    39   21   22 ar
    40   21   25 1
    41   22   23 ar
    42   22   46 1
    43   23   24 ar
    44   23   47 1
    45   24   42 1
    46   25   26 1
    47   26   27 1
    48   26   31 1
    49   26   48 1
    50   27   28 1
    51   27   49 1
    52   27   50 1
    53   28   29 1
    54   28   53 1
    55   28   54 1
    56   29   30 1
    57   29   55 1
    58   30   31 1
    59   30   56 1
    60   30   57 1
    61   31   51 1
    62   31   52 1
@<TRIPOS>SUBSTRUCTURE
     1 7I1         1 TEMP              0 ****  ****    0 ROOT
