@<TRIPOS>MOLECULE
7I2
   23    24     1     0     0
SMALL
bcc


@<TRIPOS>ATOM
      1 N1           0.0000     0.0000     0.0000 nc         1 7I2      -0.410400
      2 N2           1.4000     0.0000     0.0000 na         1 7I2       0.475700
      3 C3           1.8550     0.0000     1.2650 cc         1 7I2      -0.195100
      4 C4           0.5790    -0.0070     3.5030 ca         1 7I2       0.074000
      5 C5          -0.6830    -0.0130     4.0490 ca         1 7I2      -0.158000
      6 C6          -1.8270    -0.0160     3.2760 ca         1 7I2       0.157000
      7 C7          -1.7580    -0.0140     1.8760 ca         1 7I2      -0.469200
      8 C8          -0.4300    -0.0080     1.2360 ca         1 7I2       0.109000
      9 C9           0.7570    -0.0050     2.1080 ca         1 7I2      -0.178000
     10 N10         -2.8670    -0.0170     1.1390 no         1 7I2       0.942200
     11 O11         -4.1350    -0.0220     1.7680 o          1 7I2      -0.426500
     12 O12         -2.7910    -0.0150    -0.0770 o          1 7I2      -0.426500
     13 C13          2.2000     0.0040    -1.1350 c2         1 7I2       0.141700
     14 N14          3.4930     0.0090    -1.0210 n2         1 7I2      -0.509100
     15 N15          1.6210     0.0040    -2.3820 nz         1 7I2       0.197400
     16 H31          2.8950    -0.0000     1.5700 h4         1 7I2       0.165000
     17 H41          1.4440    -0.0050     4.1540 ha         1 7I2       0.119000
     18 H51         -0.7840    -0.0140     5.1270 ha         1 7I2       0.140000
     19 H61         -2.7960    -0.0200     3.7600 ha         1 7I2       0.159000
     20 H14          3.9160     0.0090    -0.1140 hn         1 7I2       0.382400
     21 H151         2.3360     0.0050    -3.0820 hn         1 7I2       0.236800
     22 H152         1.0510     0.8200    -2.4860 hn         1 7I2       0.236800
     23 H153         1.0540    -0.8140    -2.4860 hn         1 7I2       0.236800
@<TRIPOS>BOND
     1     1     2 1   
     2     1     8 2   
     3     2     3 1   
     4     2    13 1   
     5     3     9 2   
     6     3    16 1   
     7     4     5 ar  
     8     4     9 ar  
     9     4    17 1   
    10     5     6 ar  
    11     5    18 1   
    12     6     7 ar  
    13     6    19 1   
    14     7     8 ar  
    15     7    10 1   
    16     8     9 ar  
    17    10    11 1   
    18    10    12 1   
    19    13    14 2   
    20    13    15 1   
    21    14    20 1   
    22    15    21 1   
    23    15    22 1   
    24    15    23 1   
@<TRIPOS>SUBSTRUCTURE
     1 7I2         1 TEMP              0 ****  ****    0 ROOT
