@<TRIPOS>MOLECULE
7I6
   64    66     1     0     0
SMALL
bcc


@<TRIPOS>ATOM
      1 CAB          0.0000     0.0000     0.0000 c3         1 7I6       0.108000
      2 SAW          1.8130     0.0000     0.0000 ss         1 7I6      -0.337000
      3 CBB          2.2110     0.0000     1.7170 ca         1 7I6       0.070900
      4 CAH          1.1960    -0.0050     2.6660 ca         1 7I6      -0.125000
      5 CAF          1.5100    -0.0050     4.0110 ca         1 7I6      -0.085000
      6 CAG          2.8330     0.0020     4.4130 ca         1 7I6      -0.098000
      7 CAI          3.8460     0.0080     3.4710 ca         1 7I6      -0.081000
      8 CBC          3.5390     0.0010     2.1240 ca         1 7I6      -0.063300
      9 CBE          4.6430     0.0010     1.0990 c3         1 7I6       0.085000
     10 CAQ          4.9660     1.4490     0.6760 c3         1 7I6      -0.032400
     11 CAN          6.5100     1.4310     0.5270 c3         1 7I6      -0.032400
     12 CAS          6.9210     0.4630     1.6640 c3         1 7I6       0.031000
     13 NBF          5.8680    -0.5670     1.6820 n          1 7I6      -0.148800
     14 C            6.0030    -1.8220     2.1560 c          1 7I6       0.595100
     15 O            5.0420    -2.5610     2.2010 o          1 7I6      -0.640100
     16 CA           7.3490    -2.3070     2.6290 c3         1 7I6      -0.041300
     17 CB           8.2190    -2.6550     1.4190 c3         1 7I6      -0.020400
     18 CG           9.6320    -3.0050     1.8900 c3         1 7I6       0.068700
     19 SD          10.6630    -3.4180     0.4560 ss         1 7I6      -0.429200
     20 CE          12.2720    -3.7970     1.2050 c3         1 7I6       0.123000
     21 N            7.1740    -3.4980     3.4630 ns         1 7I6      -0.199900
     22 CAX          8.1030    -3.8170     4.3850 c          1 7I6       0.577100
     23 OAD          9.0870    -3.1160     4.5250 o          1 7I6      -0.728100
     24 NAT          7.9410    -4.9130     5.1540 ns         1 7I6      -0.213900
     25 CAP          8.9510    -5.2600     6.1560 c3         1 7I6       0.128300
     26 CBA          8.5350    -6.5190     6.8740 ca         1 7I6      -0.133300
     27 CAL          7.7570    -6.4380     8.0140 ca         1 7I6      -0.078500
     28 CAJ          7.3740    -7.5890     8.6720 ca         1 7I6      -0.116000
     29 CAZ          7.7710    -8.8300     8.1890 ca         1 7I6       0.039600
     30 NAC          7.3850    -9.9960     8.8530 nv         1 7I6      -0.562200
     31 CAK          8.5530    -8.9070     7.0440 ca         1 7I6      -0.116000
     32 CAM          8.9290    -7.7520     6.3870 ca         1 7I6      -0.078500
     33 H1          -0.3610     0.8750     0.5270 h1         1 7I6       0.036367
     34 H2          -0.3610    -0.8940     0.4940 h1         1 7I6       0.036367
     35 H3          -0.3610     0.0190    -1.0210 h1         1 7I6       0.036367
     36 H4           0.1590    -0.0110     2.3520 ha         1 7I6       0.114000
     37 H5           0.7200    -0.0090     4.7520 ha         1 7I6       0.102000
     38 H6           3.0770     0.0050     5.4680 ha         1 7I6       0.103000
     39 H7           4.8810     0.0110     3.7900 ha         1 7I6       0.108000
     40 H8           4.3470    -0.5770     0.2320 h1         1 7I6       0.062700
     41 H9           4.4940     1.6850    -0.2700 hc         1 7I6       0.035700
     42 H10          4.6660     2.1480     1.4470 hc         1 7I6       0.035700
     43 H11          6.9250     2.4180     0.6920 hc         1 7I6       0.028200
     44 H12          6.8000     1.0360    -0.4390 hc         1 7I6       0.028200
     45 H13          7.8820     0.0140     1.4460 h1         1 7I6       0.026700
     46 H14          6.9490     0.9880     2.6120 h1         1 7I6       0.026700
     47 H15          7.8310    -1.5290     3.2080 h1         1 7I6       0.065700
     48 H16          8.2630    -1.8050     0.7490 hc         1 7I6       0.035200
     49 H17          7.7920    -3.5040     0.8980 hc         1 7I6       0.035200
     50 H18         10.0600    -2.1560     2.4100 h1         1 7I6       0.058200
     51 H19          9.5890    -3.8550     2.5610 h1         1 7I6       0.058200
     52 H20         12.1990    -4.7180     1.7700 h1         1 7I6       0.030700
     53 H21         12.5610    -2.9890     1.8670 h1         1 7I6       0.030700
     54 H22         13.0160    -3.9090     0.4260 h1         1 7I6       0.030700
     55 H23          6.3510    -4.0600     3.3670 hn         1 7I6       0.196500
     56 H24          7.1380    -5.4970     5.0300 hn         1 7I6       0.175500
     57 H25          9.0440    -4.4510     6.8710 h1         1 7I6       0.026700
     58 H26          9.9050    -5.4220     5.6670 h1         1 7I6       0.026700
     59 H27          7.4470    -5.4710     8.3900 ha         1 7I6       0.107000
     60 H28          6.7640    -7.5260     9.5660 ha         1 7I6       0.110000
     61 H29          7.9630   -10.3750     9.5770 hn         1 7I6       0.274800
     62 H30          6.5300   -10.4530     8.6040 hn         1 7I6       0.274800
     63 H31          8.8640    -9.8730     6.6630 ha         1 7I6       0.110000
     64 H32          9.5390    -7.8120     5.4940 ha         1 7I6       0.107000
@<TRIPOS>BOND
     1     1     2 1   
     2     1    33 1   
     3     1    34 1   
     4     1    35 1   
     5     2     3 1   
     6     3     4 ar  
     7     3     8 ar  
     8     4     5 ar  
     9     4    36 1   
    10     5     6 ar  
    11     5    37 1   
    12     6     7 ar  
    13     6    38 1   
    14     7     8 ar  
    15     7    39 1   
    16     8     9 1   
    17     9    10 1   
    18     9    13 1   
    19     9    40 1   
    20    10    11 1   
    21    10    41 1   
    22    10    42 1   
    23    11    12 1   
    24    11    43 1   
    25    11    44 1   
    26    12    13 1   
    27    12    45 1   
    28    12    46 1   
    29    13    14 1   
    30    14    15 2   
    31    14    16 1   
    32    16    17 1   
    33    16    21 1   
    34    16    47 1   
    35    17    18 1   
    36    17    48 1   
    37    17    49 1   
    38    18    19 1   
    39    18    50 1   
    40    18    51 1   
    41    19    20 1   
    42    20    52 1   
    43    20    53 1   
    44    20    54 1   
    45    21    22 1   
    46    21    55 1   
    47    22    23 2   
    48    22    24 1   
    49    24    25 1   
    50    24    56 1   
    51    25    26 1   
    52    25    57 1   
    53    25    58 1   
    54    26    27 ar  
    55    26    32 ar  
    56    27    28 ar  
    57    27    59 1   
    58    28    29 ar  
    59    28    60 1   
    60    29    30 1   
    61    29    31 ar  
    62    30    61 1   
    63    30    62 1   
    64    31    32 ar  
    65    31    63 1   
    66    32    64 1   
@<TRIPOS>SUBSTRUCTURE
     1 7I6         1 TEMP              0 ****  ****    0 ROOT
