@<TRIPOS>MOLECULE
molecule
   27    28     1     0     0
SMALL
bcc


@<TRIPOS>ATOM
      1 C            0.0000     0.0000     0.0000 c3         1 7IA      -0.089300
      2 N            3.4010    -0.0010    -2.1860 ns         1 7IA      -0.438400
      3 O            0.2830     0.0010     2.3380 o          1 7IA      -0.822300
      4 S            1.8110     0.0000     0.0000 ss         1 7IA      -0.130300
      5 C1          -0.5020     0.0000     1.4210 c          1 7IA       0.901600
      6 N1           1.0970    -0.0010    -2.5700 nc         1 7IA      -0.694300
      7 O1          -1.8220     0.0010     1.6660 o          1 7IA      -0.822300
      8 C2           2.1160    -0.0010    -1.7350 cd         1 7IA       0.508800
      9 C3           3.6560     0.0040    -3.5110 c          1 7IA       0.696700
     10 C4           2.5760     0.0100    -4.4070 cd         1 7IA      -0.365200
     11 C5           1.2860     0.0090    -3.8960 cc         1 7IA       0.272400
     12 C6           0.1220     0.0150    -4.8130 ca         1 7IA      -0.052800
     13 C7          -1.1740     0.0150    -4.3000 ca         1 7IA      -0.093000
     14 C8          -2.2540     0.0190    -5.1590 ca         1 7IA      -0.144000
     15 C9          -2.0520     0.0240    -6.5280 ca         1 7IA      -0.125000
     16 C10         -0.7680     0.0240    -7.0420 ca         1 7IA      -0.144000
     17 C11          0.3190     0.0250    -6.1930 ca         1 7IA      -0.093000
     18 H           -0.3610     0.8850    -0.5110 h1         1 7IA       0.072700
     19 HA          -0.3610    -0.8850    -0.5110 h1         1 7IA       0.072700
     20 HN           4.1600    -0.0050    -1.5320 hn         1 7IA       0.338500
     21 H4           2.7460     0.0160    -5.4770 ha         1 7IA       0.154000
     22 H7          -1.3330     0.0100    -3.2280 ha         1 7IA       0.152000
     23 H8          -3.2610     0.0180    -4.7610 ha         1 7IA       0.126500
     24 H9          -2.9020     0.0250    -7.1990 ha         1 7IA       0.120000
     25 H10         -0.6170     0.0300    -8.1150 ha         1 7IA       0.126500
     26 H11          1.3240     0.0250    -6.5980 ha         1 7IA       0.152000
     27 O2           4.8050     0.0050    -3.9240 o          1 7IA      -0.682500
@<TRIPOS>BOND
     1     5     1 1
     2     4     1 1
     3     1    18 1
     4     1    19 1
     5     9     2 1
     6     2     8 1
     7     2    20 1
     8     3     5 1
     9     8     4 1
    10     7     5 1
    11    11     6 1
    12     6     8 2
    13    27     9 2
    14    10     9 1
    15    10    11 2
    16    10    21 1
    17    12    11 1
    18    17    12 ar
    19    12    13 ar
    20    14    13 ar
    21    13    22 1
    22    15    14 ar
    23    14    23 1
    24    16    15 ar
    25    15    24 1
    26    16    17 ar
    27    16    25 1
    28    17    26 1
@<TRIPOS>SUBSTRUCTURE
     1 7IA         1 TEMP              0 ****  ****    0 ROOT
