@<TRIPOS>MOLECULE
molecule
   45    47     1     0     0
SMALL
bcc


@<TRIPOS>ATOM
      1 C1           0.0000     0.0000     0.0000 ca         1 7IG       0.747200
      2 N1           1.3280     0.0000     0.0000 nb         1 7IG      -0.801000
      3 C2           2.0040     0.0000     1.1390 ca         1 7IG       0.945900
      4 N2           1.3950     0.0010     2.3160 nb         1 7IG      -0.783000
      5 C3           0.0740     0.0000     2.4020 ca         1 7IG       0.501600
      6 C4          -0.6810    -0.0060     1.2310 cp         1 7IG      -0.324600
      7 N3          -0.7030    -0.0010    -1.1920 nv         1 7IG      -1.075500
      8 N4           3.3880     0.0000     1.0990 nv         1 7IG      -1.025500
      9 C5          -0.6040    -0.0000     3.7480 c3         1 7IG      -0.135700
     10 C6          -0.7590    -1.4400     4.2410 c3         1 7IG      -0.082100
     11 C7          -4.2530    -1.1260     0.9100 ca         1 7IG      -0.209500
     12 C8          -2.8760    -1.1280     0.8620 ca         1 7IG      -0.069500
     13 C9          -2.1630    -0.0060     1.2820 cp         1 7IG      -0.071000
     14 C10         -2.8460     1.1130     1.7570 ca         1 7IG      -0.069500
     15 C11         -4.2240     1.1120     1.7990 ca         1 7IG      -0.209500
     16 C12         -4.9320    -0.0070     1.3780 ca         1 7IG       0.198600
     17 N5          -6.3280    -0.0080     1.4260 nu         1 7IG      -0.835600
     18 C13        -10.4840    -0.3320     3.0760 ca         1 7IG       0.160900
     19 C14         -9.1290    -0.0430     3.1020 ca         1 7IG      -0.172500
     20 C15         -8.5540     0.6710     2.0680 ca         1 7IG      -0.063300
     21 C16         -9.3290     1.1030     1.0100 ca         1 7IG      -0.172500
     22 C17        -10.6820     0.8110     0.9780 ca         1 7IG       0.160900
     23 C18        -11.2600     0.0960     2.0130 ca         1 7IG      -0.208000
     24 C19         -7.0440     1.1710     1.9200 c3         1 7IG       0.295100
     25 F2         -11.4400     1.2290    -0.0600 f          1 7IG      -0.130400
     26 HN31        -1.0160     0.8630    -1.5890 hn         1 7IG       0.439800
     27 HN32        -0.8510    -0.8600    -1.6850 hn         1 7IG       0.439800
     28 HN41         3.9050     0.6440     1.6650 hn         1 7IG       0.445800
     29 HN42         3.8710    -0.6430     0.5040 hn         1 7IG       0.445800
     30 H51         -0.0040     0.5610     4.4540 hc         1 7IG       0.062200
     31 H52         -1.5810     0.4590     3.6590 hc         1 7IG       0.062200
     32 H61         -0.7310    -2.1160     3.3950 hc         1 7IG       0.039033
     33 H62         -1.7060    -1.5450     4.7560 hc         1 7IG       0.039033
     34 H63          0.0510    -1.6780     4.9200 hc         1 7IG       0.039033
     35 H7          -4.8080    -1.9980     0.5830 ha         1 7IG       0.129500
     36 H8          -2.3470    -2.0000     0.4970 ha         1 7IG       0.132500
     37 H10         -2.2940     1.9860     2.0850 ha         1 7IG       0.132500
     38 H11         -4.7550     1.9830     2.1650 ha         1 7IG       0.129500
     39 HN5         -6.8390    -0.8110     1.1170 hn         1 7IG       0.445800
     40 H14         -8.5200    -0.3790     3.9330 ha         1 7IG       0.155000
     41 H16         -8.8770     1.6620     0.2000 ha         1 7IG       0.155000
     42 H18        -12.3190    -0.1300     1.9900 ha         1 7IG       0.162000
     43 H191        -6.8050     2.0260     1.2990 h1         1 7IG       0.053700
     44 H192        -6.7470     1.3720     2.9420 h1         1 7IG       0.053700
     45 F1         -11.0450    -1.0300     4.0860 f          1 7IG      -0.130400
@<TRIPOS>BOND
     1     1     2 ar
     2     1     6 ar
     3     1     7 1
     4     2     3 ar
     5     3     4 ar
     6     3     8 1
     7     4     5 ar
     8     5     6 ar
     9     5     9 1
    10     6    13 1
    11     7    26 1
    12     7    27 1
    13     8    28 1
    14     8    29 1
    15     9    10 1
    16     9    30 1
    17     9    31 1
    18    10    32 1
    19    10    33 1
    20    10    34 1
    21    11    12 ar
    22    11    16 ar
    23    11    35 1
    24    12    13 ar
    25    12    36 1
    26    13    14 ar
    27    14    15 ar
    28    14    37 1
    29    15    16 ar
    30    15    38 1
    31    16    17 1
    32    17    24 1
    33    17    39 1
    34    18    19 ar
    35    18    23 ar
    36    18    45 1
    37    19    20 ar
    38    19    40 1
    39    20    21 ar
    40    20    24 1
    41    21    22 ar
    42    21    41 1
    43    22    23 ar
    44    22    25 1
    45    23    42 1
    46    24    43 1
    47    24    44 1
@<TRIPOS>SUBSTRUCTURE
     1 7IG         1 TEMP              0 ****  ****    0 ROOT
