@<TRIPOS>MOLECULE
7IN
   61    62     1     0     0
SMALL
bcc


@<TRIPOS>ATOM
      1 O2           0.0000     0.0000     0.0000 oh         1 7IN      -0.592800
      2 C3           1.4280     0.0000     0.0000 c3         1 7IN       0.208400
      3 C4           1.9380     0.0000     1.4420 c3         1 7IN      -0.052300
      4 N5           1.4500    -1.1940     2.1330 ns         1 7IN      -0.169900
      5 C6           2.1770    -2.3280     2.1140 c          1 7IN       0.576100
      6 C7           1.6750    -3.5590     2.8250 c3         1 7IN       0.131500
      7 N8           2.6390    -4.6490     2.6570 n7         1 7IN      -0.568100
      8 S9           3.3490    -5.3380     3.9850 s6         1 7IN       0.955900
      9 C10          1.9360    -5.9830     4.9210 c3         1 7IN       0.053700
     10 C11          2.4290    -6.6520     6.1780 ca         1 7IN      -0.095300
     11 C12          2.7360    -7.9990     6.1700 ca         1 7IN      -0.086000
     12 C13          3.1930    -8.6110     7.3230 ca         1 7IN      -0.092500
     13 C14          3.3330    -7.8770     8.4860 ca         1 7IN      -0.090000
     14 C15          3.0220    -6.5300     8.4950 ca         1 7IN      -0.092500
     15 C16          2.5690    -5.9170     7.3410 ca         1 7IN      -0.086000
     16 O17          4.1240    -6.3860     3.4200 o          1 7IN      -0.572300
     17 O18          3.9450    -4.2250     4.6360 o          1 7IN      -0.572300
     18 C19          0.3260    -3.9750     2.2330 c3         1 7IN       0.207400
     19 O20          0.4850    -4.2600     0.8420 oh         1 7IN      -0.584800
     20 O21          3.2360    -2.3600     1.5250 o          1 7IN      -0.634100
     21 C22          1.4370     1.2310     2.1510 c          1 7IN       0.582100
     22 O23          0.7390     1.1200     3.1370 o          1 7IN      -0.627100
     23 N24          1.7630     2.4550     1.6910 ns         1 7IN      -0.208900
     24 C25          1.2760     3.6510     2.3810 c3         1 7IN       0.102300
     25 C26          1.7780     4.8820     1.6700 ca         1 7IN      -0.057300
     26 C27          2.9880     5.4430     2.0360 ca         1 7IN      -0.054000
     27 C28          3.4550     6.5670     1.3860 ca         1 7IN      -0.073500
     28 C29          2.7010     7.1420     0.3640 ca         1 7IN      -0.227900
     29 C30          1.4840     6.5700    -0.0010 ca         1 7IN      -0.073500
     30 C31          1.0290     5.4440     0.6520 ca         1 7IN      -0.054000
     31 C32          3.1960     8.3500    -0.3340 ce         1 7IN       0.210800
     32 N33          2.4910     8.8820    -1.2930 n2         1 7IN      -0.485100
     33 N34          4.4000     8.9120     0.0290 nz         1 7IN       0.191400
     34 HO2         -0.3140     0.0700    -0.8860 ho         1 7IN       0.398000
     35 H31A         1.7890     0.8840    -0.5110 h1         1 7IN      -0.000800
     36 H32          1.7890    -0.8840    -0.5110 h1         1 7IN      -0.000800
     37 H4           3.0220    -0.0010     1.4420 h1         1 7IN       0.075700
     38 HN5          0.5920    -1.1590     2.6460 hn         1 7IN       0.200500
     39 H7           1.5550    -3.3430     3.8800 h1         1 7IN       0.047700
     40 HN8          2.8970    -4.9510     1.7390 hn         1 7IN       0.376800
     41 H101         1.2730    -5.1670     5.1830 h1         1 7IN       0.066700
     42 H102         1.4000    -6.7040     4.3160 h1         1 7IN       0.066700
     43 H12          2.6260    -8.5740     5.2590 ha         1 7IN       0.111000
     44 H13          3.4350    -9.6660     7.3160 ha         1 7IN       0.107000
     45 H14          3.6900    -8.3560     9.3890 ha         1 7IN       0.106000
     46 H15          3.1320    -5.9550     9.4060 ha         1 7IN       0.107000
     47 H16          2.3250    -4.8620     7.3480 ha         1 7IN       0.111000
     48 H191        -0.0360    -4.8590     2.7440 h1         1 7IN      -0.007300
     49 H192        -0.3870    -3.1690     2.3570 h1         1 7IN      -0.007300
     50 H20         -0.2880    -4.6910     0.5180 ho         1 7IN       0.397000
     51 H24          2.3580     2.5460     0.8910 hn         1 7IN       0.176500
     52 H251         1.6370     3.6510     3.4020 h1         1 7IN       0.042200
     53 H252         0.1930     3.6510     2.3810 h1         1 7IN       0.042200
     54 H27          3.5690     5.0000     2.8360 ha         1 7IN       0.133500
     55 H28          4.3760     7.0360     1.7100 ha         1 7IN       0.100000
     56 H30          0.8730     7.0380    -0.7640 ha         1 7IN       0.100000
     57 H31          0.0820     5.0000     0.3690 ha         1 7IN       0.133500
     58 H33          1.6160     8.4750    -1.5580 hn         1 7IN       0.381400
     59 H341         4.6000     9.6880    -0.5700 hn         1 7IN       0.222133
     60 H342         4.3480     9.2280     0.9770 hn         1 7IN       0.222133
     61 H343         5.1260     8.2290    -0.0560 hn         1 7IN       0.222133
@<TRIPOS>BOND
     1     1     2 1   
     2     1    34 1   
     3     2     3 1   
     4     2    35 1   
     5     2    36 1   
     6     3     4 1   
     7     3    21 1   
     8     3    37 1   
     9     4     5 1   
    10     4    38 1   
    11     5     6 1   
    12     5    20 2   
    13     6     7 1   
    14     6    18 1   
    15     6    39 1   
    16     7     8 1   
    17     7    40 1   
    18     8     9 1   
    19     8    16 2   
    20     8    17 2   
    21     9    10 1   
    22     9    41 1   
    23     9    42 1   
    24    10    11 ar  
    25    10    15 ar  
    26    11    12 ar  
    27    11    43 1   
    28    12    13 ar  
    29    12    44 1   
    30    13    14 ar  
    31    13    45 1   
    32    14    15 ar  
    33    14    46 1   
    34    15    47 1   
    35    18    19 1   
    36    18    48 1   
    37    18    49 1   
    38    19    50 1   
    39    21    22 2   
    40    21    23 1   
    41    23    24 1   
    42    23    51 1   
    43    24    25 1   
    44    24    52 1   
    45    24    53 1   
    46    25    26 ar  
    47    25    30 ar  
    48    26    27 ar  
    49    26    54 1   
    50    27    28 ar  
    51    27    55 1   
    52    28    29 ar  
    53    28    31 1   
    54    29    30 ar  
    55    29    56 1   
    56    30    57 1   
    57    31    32 2   
    58    31    33 1   
    59    32    58 1   
    60    33    59 1   
    61    33    60 1   
    62    33    61 1   
@<TRIPOS>SUBSTRUCTURE
     1 7IN         1 TEMP              0 ****  ****    0 ROOT
