@<TRIPOS>MOLECULE
molecule
   43    45     1     0     0
SMALL
bcc


@<TRIPOS>ATOM
      1 C1           0.0000     0.0000     0.0000 c3         1 7IP       0.128700
      2 O2           1.4270     0.0000     0.0000 os         1 7IP      -0.330900
      3 C3           2.0460     0.0000     1.2120 ca         1 7IP       0.137100
      4 C4           3.4390     0.0000     1.2830 ca         1 7IP      -0.159000
      5 C5           4.0740    -0.0020     2.5250 ca         1 7IP      -0.096000
      6 C6           3.3150    -0.0050     3.6960 ca         1 7IP      -0.159000
      7 C7           1.9230    -0.0050     3.6250 cp         1 7IP       0.005000
      8 C8           1.2880    -0.0030     2.3830 ca         1 7IP      -0.210000
      9 C9           1.1370    -0.0080     4.8390 cp         1 7IP      -0.039000
     10 C10          1.6360     0.5940     5.9940 ca         1 7IP      -0.117000
     11 C11          0.8790     0.5930     7.1650 ca         1 7IP      -0.129000
     12 C12         -0.3790    -0.0110     7.1820 ca         1 7IP      -0.116000
     13 C13         -0.8790    -0.6130     6.0260 ca         1 7IP      -0.074300
     14 C14         -2.2230    -1.2590     6.0460 c3         1 7IP      -0.026100
     15 C15         -3.3800    -0.3110     5.6730 c3         1 7IP      -0.129700
     16 C16         -3.2580     0.2580     4.2800 ca         1 7IP       0.452600
     17 C17         -3.8300    -0.4290     3.2320 ca         1 7IP      -0.301300
     18 C18         -3.6990     0.1220     1.9620 ca         1 7IP      -0.054000
     19 C19         -3.0110     1.3180     1.7960 ca         1 7IP      -0.329300
     20 C20         -2.4770     1.9210     2.9240 ca         1 7IP       0.683200
     21 N21         -1.7800     3.1410     2.7390 nv         1 7IP      -1.023500
     22 N22         -2.5840     1.4160     4.1740 nb         1 7IP      -0.709000
     23 C23         -0.1210    -0.6110     4.8560 ca         1 7IP      -0.100000
     24 H11A        -0.3610    -0.0450    -1.0200 h1         1 7IP       0.040700
     25 H12A        -0.3610    -0.8610     0.5490 h1         1 7IP       0.040700
     26 H13         -0.3610     0.9060     0.4710 h1         1 7IP       0.040700
     27 H4           4.0280     0.0030     0.3740 ha         1 7IP       0.142000
     28 H5           5.1560    -0.0020     2.5810 ha         1 7IP       0.134000
     29 H6           3.8080    -0.0070     4.6610 ha         1 7IP       0.134000
     30 H8           0.2060    -0.0020     2.3280 ha         1 7IP       0.143000
     31 H10          2.6120     1.0630     5.9820 ha         1 7IP       0.132000
     32 H11          1.2670     1.0600     8.0620 ha         1 7IP       0.129000
     33 H12         -0.9670    -0.0120     8.0910 ha         1 7IP       0.129000
     34 H141        -2.2170    -2.0870     5.3480 hc         1 7IP       0.047200
     35 H142        -2.4030    -1.6470     7.0410 hc         1 7IP       0.047200
     36 H151        -4.3130    -0.8570     5.7440 hc         1 7IP       0.057700
     37 H152        -3.4010     0.5080     6.3810 hc         1 7IP       0.057700
     38 H17         -4.3610    -1.3600     3.3910 ha         1 7IP       0.144000
     39 H18         -4.1310    -0.3800     1.1050 ha         1 7IP       0.131000
     40 H19         -2.8970     1.7660     0.8160 ha         1 7IP       0.138000
     41 H211        -1.6960     3.5350     1.8230 hn         1 7IP       0.438300
     42 H212        -1.4080     3.6290     3.5300 hn         1 7IP       0.438300
     43 H23         -0.5090    -1.0790     3.9590 ha         1 7IP       0.133000
@<TRIPOS>BOND
     1     1     2 1   
     2     1    24 1   
     3     1    25 1   
     4     1    26 1   
     5     2     3 1   
     6     3     4 ar  
     7     3     8 ar  
     8     4     5 ar  
     9     4    27 1   
    10     5     6 ar  
    11     5    28 1   
    12     6     7 ar  
    13     6    29 1   
    14     7     8 ar  
    15     7     9 1   
    16     8    30 1   
    17     9    23 ar  
    18     9    10 ar  
    19    10    11 ar  
    20    10    31 1   
    21    11    12 ar  
    22    11    32 1   
    23    12    13 ar  
    24    12    33 1   
    25    13    23 ar  
    26    13    14 1   
    27    14    15 1   
    28    14    34 1   
    29    14    35 1   
    30    15    16 1   
    31    15    36 1   
    32    15    37 1   
    33    16    22 ar  
    34    16    17 ar  
    35    17    18 ar  
    36    17    38 1   
    37    18    19 ar  
    38    18    39 1   
    39    19    20 ar  
    40    19    40 1   
    41    20    21 1   
    42    20    22 ar  
    43    21    41 1   
    44    21    42 1   
    45    23    43 1   
@<TRIPOS>SUBSTRUCTURE
     1 7IP         1 TEMP              0 ****  ****    0 ROOT
