@<TRIPOS>MOLECULE
7J0
   82    85     1     0     0
SMALL
bcc


@<TRIPOS>ATOM
      1 C33          0.0000     0.0000     0.0000 c          1 7J0       0.590100
      2 O42          1.2120     0.0000     0.0000 o          1 7J0      -0.652100
      3 C34         -0.7530     0.0000     1.3060 c3         1 7J0      -0.093400
      4 C35          0.2420    -0.0010     2.4680 c3         1 7J0       0.042900
      5 C36         -0.5110    -0.0030     3.7740 ca         1 7J0      -0.091300
      6 C37         -0.8560    -1.2000     4.3720 ca         1 7J0      -0.098500
      7 C38         -1.5470    -1.2010     5.5700 ca         1 7J0      -0.101000
      8 C39         -1.8920    -0.0040     6.1690 ca         1 7J0      -0.108000
      9 C40         -1.5460     1.1930     5.5720 ca         1 7J0      -0.101000
     10 C41         -0.8510     1.1950     4.3770 ca         1 7J0      -0.098500
     11 C22          0.0530     0.1220    -2.4320 c3         1 7J0      -0.033300
     12 C23         -0.8130    -0.4210    -3.5710 c3         1 7J0      -0.116400
     13 C24         -1.0240    -1.9020    -3.3790 c          1 7J0       0.583100
     14 C26         -2.5500    -1.8900    -5.2960 c3         1 7J0       0.046000
     15 C27         -4.0490    -2.1810    -5.1820 c3         1 7J0      -0.041400
     16 C28         -4.2700    -3.6950    -5.1530 c3         1 7J0      -0.026400
     17 C29         -3.5670    -4.2910    -3.9310 c3         1 7J0      -0.041400
     18 C30         -2.0620    -4.0230    -4.0310 c3         1 7J0       0.046000
     19 C02          0.3780     1.5700    -2.6960 c          1 7J0       0.556100
     20 N25         -1.8470    -2.5780    -4.2040 n          1 7J0      -0.151800
     21 O31         -0.4520    -2.4840    -2.4820 o          1 7J0      -0.640100
     22 N32         -0.6750     0.0070    -1.1670 ns         1 7J0      -0.151900
     23 O20          3.7480     2.9580    -3.9110 os         1 7J0      -0.419600
     24 N03          1.0490     1.9180    -3.8110 ns         1 7J0      -0.160900
     25 C04          1.3640     3.3250    -4.0670 c3         1 7J0      -0.054300
     26 C05          1.5330     3.5410    -5.5490 c          1 7J0       0.574100
     27 O18          1.4020     2.6110    -6.3160 o          1 7J0      -0.656100
     28 C19          2.6620     3.6960    -3.3470 c3         1 7J0       0.189400
     29 C21          5.0130     3.2310    -3.3060 c3         1 7J0       0.255700
     30 C11          2.8820     9.1180    -8.2240 ca         1 7J0      -0.074000
     31 C10          1.6250     8.6210    -8.3950 ca         1 7J0      -0.107000
     32 C12          3.9140     8.2650    -7.7980 ca         1 7J0      -0.039000
     33 C14          4.6600     6.0470    -7.1180 ca         1 7J0      -0.106000
     34 C13          3.6270     6.9000    -7.5450 ca         1 7J0      -0.020000
     35 C15          5.9170     6.5420    -6.9520 ca         1 7J0      -0.089000
     36 N06          1.8290     4.7680    -6.0220 ns         1 7J0      -0.183900
     37 C07          1.9930     4.9780    -7.4630 c3         1 7J0       0.108300
     38 C08          2.3170     6.4260    -7.7260 ca         1 7J0      -0.118300
     39 C09          1.3460     7.2780    -8.1520 ca         1 7J0      -0.076000
     40 C16          6.1980     7.8840    -7.2000 ca         1 7J0      -0.100000
     41 C17          5.2240     8.7400    -7.6160 ca         1 7J0      -0.084000
     42 H25         -1.3750     0.8850     1.3640 hc         1 7J0       0.029700
     43 H26         -1.3760    -0.8840     1.3630 hc         1 7J0       0.029700
     44 H34          0.8650    -0.8860     2.4090 hc         1 7J0       0.034700
     45 H35          0.8640     0.8830     2.4110 hc         1 7J0       0.034700
     46 H36         -0.5860    -2.1380     3.9020 ha         1 7J0       0.107000
     47 H37         -1.8180    -2.1390     6.0380 ha         1 7J0       0.100000
     48 H38         -2.4350    -0.0050     7.1060 ha         1 7J0       0.100000
     49 H39         -1.8150     2.1310     6.0430 ha         1 7J0       0.100000
     50 H40         -0.5800     2.1330     3.9090 ha         1 7J0       0.107000
     51 H4           0.9710    -0.4490    -2.3740 h1         1 7J0       0.089700
     52 H6          -1.7720     0.0830    -3.5670 hc         1 7J0       0.043700
     53 H7          -0.3170    -0.2470    -4.5170 hc         1 7J0       0.043700
     54 H8          -2.3830    -0.8220    -5.2180 h1         1 7J0       0.031450
     55 H9          -2.1830    -2.2520    -6.2480 h1         1 7J0       0.031450
     56 H10         -4.4330    -1.7430    -4.2690 hc         1 7J0       0.021950
     57 H11         -4.5650    -1.7590    -6.0360 hc         1 7J0       0.021950
     58 H12         -3.8600    -4.1360    -6.0540 hc         1 7J0       0.018200
     59 H13         -5.3310    -3.9030    -5.0930 hc         1 7J0       0.018200
     60 H14         -3.7410    -5.3600    -3.9010 hc         1 7J0       0.021950
     61 H15         -3.9560    -3.8310    -3.0310 hc         1 7J0       0.021950
     62 H23         -1.5740    -4.3550    -3.1230 h1         1 7J0       0.031450
     63 H24         -1.6560    -4.5550    -4.8830 h1         1 7J0       0.031450
     64 H33         -1.6750    -0.0220    -1.1660 hn         1 7J0       0.168500
     65 H28          0.5570     3.9490    -3.7010 h1         1 7J0       0.069700
     66 H16          2.8490     4.7570    -3.4630 h1         1 7J0       0.010200
     67 H17          2.5720     3.4580    -2.2940 h1         1 7J0       0.010200
     68 H1           5.0000     2.8990    -2.2750 h1         1 7J0      -0.009633
     69 H2           5.7920     2.7040    -3.8440 h1         1 7J0      -0.009633
     70 H3           5.2080     4.2960    -3.3390 h1         1 7J0      -0.009633
     71 H27          1.3640     1.2110    -4.4460 hn         1 7J0       0.203500
     72 H21          3.0850    10.1640    -8.4170 ha         1 7J0       0.107000
     73 H22          0.8330     9.2780    -8.7340 ha         1 7J0       0.105000
     74 H5           4.4560     5.0010    -6.9210 ha         1 7J0       0.120000
     75 H20          6.7110     5.8830    -6.6220 ha         1 7J0       0.103000
     76 H29          1.8830     5.5450    -5.3940 hn         1 7J0       0.181500
     77 H30          2.8000     4.3550    -7.8290 h1         1 7J0       0.033700
     78 H31          1.0740     4.7160    -7.9730 h1         1 7J0       0.033700
     79 H32          0.3380     6.9090    -8.2950 ha         1 7J0       0.106000
     80 H18          7.2070     8.2520    -7.0600 ha         1 7J0       0.103000
     81 H19          5.4580     9.7800    -7.8050 ha         1 7J0       0.107000
     82 O01          0.0350     2.4220    -1.9030 o          1 7J0      -0.659100
@<TRIPOS>BOND
     1     1     2 2   
     2     1     3 1   
     3     1    22 1   
     4     3     4 1   
     5     3    42 1   
     6     3    43 1   
     7     4     5 1   
     8     4    44 1   
     9     4    45 1   
    10     5     6 ar  
    11     5    10 ar  
    12     6     7 ar  
    13     6    46 1   
    14     7     8 ar  
    15     7    47 1   
    16     8     9 ar  
    17     8    48 1   
    18     9    10 ar  
    19     9    49 1   
    20    10    50 1   
    21    11    12 1   
    22    11    19 1   
    23    11    22 1   
    24    11    51 1   
    25    12    13 1   
    26    12    52 1   
    27    12    53 1   
    28    13    20 1   
    29    13    21 2   
    30    14    15 1   
    31    14    20 1   
    32    14    54 1   
    33    14    55 1   
    34    15    16 1   
    35    15    56 1   
    36    15    57 1   
    37    16    17 1   
    38    16    58 1   
    39    16    59 1   
    40    17    18 1   
    41    17    60 1   
    42    17    61 1   
    43    18    20 1   
    44    18    62 1   
    45    18    63 1   
    46    19    24 1   
    47    19    82 2   
    48    22    64 1   
    49    23    28 1   
    50    23    29 1   
    51    24    25 1   
    52    24    71 1   
    53    25    26 1   
    54    25    28 1   
    55    25    65 1   
    56    26    27 2   
    57    26    36 1   
    58    28    66 1   
    59    28    67 1   
    60    29    68 1   
    61    29    69 1   
    62    29    70 1   
    63    30    31 ar  
    64    30    32 ar  
    65    30    72 1   
    66    31    39 ar  
    67    31    73 1   
    68    32    34 ar  
    69    32    41 ar  
    70    33    34 ar  
    71    33    35 ar  
    72    33    74 1   
    73    34    38 ar  
    74    35    40 ar  
    75    35    75 1   
    76    36    37 1   
    77    36    76 1   
    78    37    38 1   
    79    37    77 1   
    80    37    78 1   
    81    38    39 ar  
    82    39    79 1   
    83    40    41 ar  
    84    40    80 1   
    85    41    81 1   
@<TRIPOS>SUBSTRUCTURE
     1 7J0         1 TEMP              0 ****  ****    0 ROOT
