@<TRIPOS>MOLECULE
molecule
   82    85     1     0     0
SMALL
bcc


@<TRIPOS>ATOM
      1 C33          0.0000     0.0000     0.0000 c          1 7J0       0.676100
      2 O42          1.2120     0.0000     0.0000 o          1 7J0      -0.609100
      3 C34         -0.7530     0.0000     1.3060 c3         1 7J0      -0.150400
      4 C35          0.2420    -0.0010     2.4680 c3         1 7J0      -0.021100
      5 C36         -0.5110    -0.0030     3.7740 ca         1 7J0      -0.086300
      6 C37         -0.8560    -1.2000     4.3720 ca         1 7J0      -0.125000
      7 C38         -1.5470    -1.2010     5.5700 ca         1 7J0      -0.128000
      8 C39         -1.8920    -0.0040     6.1690 ca         1 7J0      -0.133000
      9 C40         -1.5460     1.1930     5.5720 ca         1 7J0      -0.128000
     10 C41         -0.8510     1.1950     4.3770 ca         1 7J0      -0.125000
     11 C22          0.0530     0.1220    -2.4320 c3         1 7J0       0.067700
     12 C23         -0.8130    -0.4210    -3.5710 c3         1 7J0      -0.171400
     13 C24         -1.0240    -1.9020    -3.3790 c          1 7J0       0.659100
     14 C26         -2.5500    -1.8900    -5.2960 c3         1 7J0       0.103000
     15 C27         -4.0490    -2.1810    -5.1820 c3         1 7J0      -0.099400
     16 C28         -4.2700    -3.6950    -5.1530 c3         1 7J0      -0.080400
     17 C29         -3.5670    -4.2910    -3.9310 c3         1 7J0      -0.099400
     18 C30         -2.0620    -4.0230    -4.0310 c3         1 7J0       0.103000
     19 C02          0.3780     1.5700    -2.6960 c          1 7J0       0.644100
     20 N25         -1.8470    -2.5780    -4.2040 n          1 7J0      -0.491800
     21 O31         -0.4520    -2.4840    -2.4820 o          1 7J0      -0.597100
     22 N32         -0.6750     0.0070    -1.1670 ns         1 7J0      -0.556900
     23 O20          3.7480     2.9580    -3.9110 os         1 7J0      -0.429600
     24 N03          1.0490     1.9180    -3.8110 ns         1 7J0      -0.561900
     25 C04          1.3640     3.3250    -4.0670 c3         1 7J0       0.051700
     26 C05          1.5330     3.5410    -5.5490 c          1 7J0       0.661100
     27 O18          1.4020     2.6110    -6.3160 o          1 7J0      -0.613100
     28 C19          2.6620     3.6960    -3.3470 c3         1 7J0       0.120400
     29 C21          5.0130     3.2310    -3.3060 c3         1 7J0       0.129700
     30 C11          2.8820     9.1180    -8.2240 ca         1 7J0      -0.105000
     31 C10          1.6250     8.6210    -8.3950 ca         1 7J0      -0.133000
     32 C12          3.9140     8.2650    -7.7980 ca         1 7J0      -0.039000
     33 C14          4.6600     6.0470    -7.1180 ca         1 7J0      -0.122000
     34 C13          3.6270     6.9000    -7.5450 ca         1 7J0      -0.026000
     35 C15          5.9170     6.5420    -6.9520 ca         1 7J0      -0.122000
     36 N06          1.8290     4.7680    -6.0220 ns         1 7J0      -0.578900
     37 C07          1.9930     4.9780    -7.4630 c3         1 7J0       0.162300
     38 C08          2.3170     6.4260    -7.7260 ca         1 7J0      -0.110300
     39 C09          1.3460     7.2780    -8.1520 ca         1 7J0      -0.105000
     40 C16          6.1980     7.8840    -7.2000 ca         1 7J0      -0.125000
     41 C17          5.2240     8.7400    -7.6160 ca         1 7J0      -0.115000
     42 H25         -1.3750     0.8850     1.3640 hc         1 7J0       0.064200
     43 H26         -1.3760    -0.8840     1.3630 hc         1 7J0       0.064200
     44 H34          0.8650    -0.8860     2.4090 hc         1 7J0       0.065700
     45 H35          0.8640     0.8830     2.4110 hc         1 7J0       0.065700
     46 H36         -0.5860    -2.1380     3.9020 ha         1 7J0       0.132000
     47 H37         -1.8180    -2.1390     6.0380 ha         1 7J0       0.127500
     48 H38         -2.4350    -0.0050     7.1060 ha         1 7J0       0.127000
     49 H39         -1.8150     2.1310     6.0430 ha         1 7J0       0.127500
     50 H40         -0.5800     2.1330     3.9090 ha         1 7J0       0.132000
     51 H4           0.9710    -0.4490    -2.3740 h1         1 7J0       0.118700
     52 H6          -1.7720     0.0830    -3.5670 hc         1 7J0       0.074700
     53 H7          -0.3170    -0.2470    -4.5170 hc         1 7J0       0.074700
     54 H8          -2.3830    -0.8220    -5.2180 h1         1 7J0       0.057200
     55 H9          -2.1830    -2.2520    -6.2480 h1         1 7J0       0.057200
     56 H10         -4.4330    -1.7430    -4.2690 hc         1 7J0       0.050450
     57 H11         -4.5650    -1.7590    -6.0360 hc         1 7J0       0.050450
     58 H12         -3.8600    -4.1360    -6.0540 hc         1 7J0       0.045200
     59 H13         -5.3310    -3.9030    -5.0930 hc         1 7J0       0.045200
     60 H14         -3.7410    -5.3600    -3.9010 hc         1 7J0       0.050450
     61 H15         -3.9560    -3.8310    -3.0310 hc         1 7J0       0.050450
     62 H23         -1.5740    -4.3550    -3.1230 h1         1 7J0       0.057200
     63 H24         -1.6560    -4.5550    -4.8830 h1         1 7J0       0.057200
     64 H33         -1.6750    -0.0220    -1.1660 hn         1 7J0       0.316500
     65 H28          0.5570     3.9490    -3.7010 h1         1 7J0       0.098700
     66 H16          2.8490     4.7570    -3.4630 h1         1 7J0       0.042700
     67 H17          2.5720     3.4580    -2.2940 h1         1 7J0       0.042700
     68 H1           5.0000     2.8990    -2.2750 h1         1 7J0       0.032700
     69 H2           5.7920     2.7040    -3.8440 h1         1 7J0       0.032700
     70 H3           5.2080     4.2960    -3.3390 h1         1 7J0       0.032700
     71 H27          1.3640     1.2110    -4.4460 hn         1 7J0       0.341500
     72 H21          3.0850    10.1640    -8.4170 ha         1 7J0       0.135000
     73 H22          0.8330     9.2780    -8.7340 ha         1 7J0       0.132000
     74 H5           4.4560     5.0010    -6.9210 ha         1 7J0       0.147000
     75 H20          6.7110     5.8830    -6.6220 ha         1 7J0       0.131000
     76 H29          1.8830     5.5450    -5.3940 hn         1 7J0       0.320500
     77 H30          2.8000     4.3550    -7.8290 h1         1 7J0       0.061700
     78 H31          1.0740     4.7160    -7.9730 h1         1 7J0       0.061700
     79 H32          0.3380     6.9090    -8.2950 ha         1 7J0       0.133000
     80 H18          7.2070     8.2520    -7.0600 ha         1 7J0       0.130000
     81 H19          5.4580     9.7800    -7.8050 ha         1 7J0       0.134000
     82 O01          0.0350     2.4220    -1.9030 o          1 7J0      -0.611100
@<TRIPOS>BOND
     1    31    39 ar
     2    31    30 ar
     3    39    38 ar
     4    30    32 ar
     5    38    37 1
     6    38    34 ar
     7    32    34 ar
     8    32    41 ar
     9    37    36 1
    10    34    33 ar
    11    41    40 ar
    12    36    26 1
    13    33    35 ar
    14    40    35 ar
    15    29    23 1
    16    26    25 1
    17    26    27 2
    18    23    28 1
    19    25    28 1
    20    25    24 1
    21    82    19 2
    22    19    24 1
    23    19    11 1
    24    10     9 ar
    25    10     5 ar
    26     9     8 ar
    27     4     5 1
    28     4     3 1
    29    17    18 1
    30    17    16 1
    31    18    20 1
    32    11    12 1
    33    11    22 1
    34     5     6 ar
    35    12    13 1
    36    22     1 1
    37     1     2 2
    38     1     3 1
    39    16    15 1
    40     8     7 ar
    41    20    13 1
    42    20    14 1
    43    13    21 2
    44     6     7 ar
    45    15    14 1
    46    29    68 1
    47    29    69 1
    48    29    70 1
    49    11    51 1
    50    33    74 1
    51    12    52 1
    52    12    53 1
    53    14    54 1
    54    14    55 1
    55    15    56 1
    56    15    57 1
    57    16    58 1
    58    16    59 1
    59    17    60 1
    60    17    61 1
    61    28    66 1
    62    28    67 1
    63    40    80 1
    64    41    81 1
    65    35    75 1
    66    30    72 1
    67    31    73 1
    68    18    62 1
    69    18    63 1
    70     3    42 1
    71     3    43 1
    72    24    71 1
    73    25    65 1
    74    36    76 1
    75    37    77 1
    76    37    78 1
    77    39    79 1
    78    22    64 1
    79     4    44 1
    80     4    45 1
    81     6    46 1
    82     7    47 1
    83     8    48 1
    84     9    49 1
    85    10    50 1
@<TRIPOS>SUBSTRUCTURE
     1 7J0         1 TEMP              0 ****  ****    0 ROOT
