@<TRIPOS>MOLECULE
molecule
   75    78     1     0     0
SMALL
bcc


@<TRIPOS>ATOM
      1 C32          0.0000     0.0000     0.0000 c          1 7J1       0.676100
      2 O41          1.2120     0.0000     0.0000 o          1 7J1      -0.606100
      3 C33         -0.7540     0.0000     1.3050 c3         1 7J1      -0.149400
      4 C34          0.2400    -0.0010     2.4670 c3         1 7J1      -0.020100
      5 C35         -0.5130    -0.0020     3.7730 ca         1 7J1      -0.087300
      6 C36         -0.8590    -1.1990     4.3710 ca         1 7J1      -0.125000
      7 C37         -1.5500    -1.2000     5.5670 ca         1 7J1      -0.127500
      8 C38         -1.8960    -0.0030     6.1670 ca         1 7J1      -0.132000
      9 C39         -1.5500     1.1940     5.5690 ca         1 7J1      -0.127500
     10 C40         -0.8540     1.1950     4.3750 ca         1 7J1      -0.125000
     11 N31         -0.6740     0.0070    -1.1670 ns         1 7J1      -0.563900
     12 C22          0.0560     0.1150    -2.4340 c3         1 7J1       0.063700
     13 C23         -0.8120    -0.4320    -3.5700 c3         1 7J1      -0.172400
     14 C24         -1.0250    -1.9100    -3.3720 c          1 7J1       0.556900
     15 O30         -0.4570    -2.4890    -2.4760 o          1 7J1      -0.534100
     16 N25         -1.8500    -2.5890    -4.1950 n          1 7J1      -0.050200
     17 C29         -2.1290    -3.9280    -4.1220 cc         1 7J1      -0.142800
     18 C28         -2.9920    -4.2300    -5.1100 cd         1 7J1      -0.185000
     19 C26         -2.5560    -2.0520    -5.2400 cc         1 7J1      -0.142800
     20 C27         -3.2600    -3.0410    -5.8210 cd         1 7J1      -0.185000
     21 C02          0.3840     1.5600    -2.7030 c          1 7J1       0.645100
     22 O01          0.0420     2.4170    -1.9150 o          1 7J1      -0.606100
     23 N03          1.0560     1.9020    -3.8200 ns         1 7J1      -0.561900
     24 C04          1.3750     3.3080    -4.0810 c3         1 7J1       0.050700
     25 C05          1.5460     3.5160    -5.5640 c          1 7J1       0.661100
     26 O18          1.4140     2.5830    -6.3270 o          1 7J1      -0.612100
     27 C19          2.6730     3.6790    -3.3610 c3         1 7J1       0.120400
     28 C21          5.0230     3.2080    -3.3160 c3         1 7J1       0.129700
     29 C11          2.9090     9.0780    -8.2630 ca         1 7J1      -0.104000
     30 C10          1.6500     8.5850    -8.4260 ca         1 7J1      -0.133000
     31 C12          3.9390     8.2240    -7.8310 ca         1 7J1      -0.039000
     32 C14          4.6800     6.0080    -7.1420 ca         1 7J1      -0.122000
     33 C13          3.6500     6.8610    -7.5740 ca         1 7J1      -0.025000
     34 C15          5.9380     6.5010    -6.9790 ca         1 7J1      -0.121000
     35 N06          1.8450     4.7400    -6.0420 ns         1 7J1      -0.577900
     36 C07          2.0100     4.9430    -7.4840 c3         1 7J1       0.162300
     37 C08          2.3390     6.3890    -7.7540 ca         1 7J1      -0.110300
     38 C09          1.3650     7.2460    -8.1670 ca         1 7J1      -0.105000
     39 C16          6.2220     7.8410    -7.2320 ca         1 7J1      -0.125000
     40 C17          5.2500     8.6970    -7.6500 ca         1 7J1      -0.115000
     41 H26         -1.3760     0.8850     1.3620 hc         1 7J1       0.065200
     42 H27         -1.3770    -0.8840     1.3620 hc         1 7J1       0.065200
     43 H28          0.8630    -0.8850     2.4090 hc         1 7J1       0.066200
     44 H29          0.8630     0.8830     2.4110 hc         1 7J1       0.066200
     45 H30         -0.5880    -2.1370     3.9010 ha         1 7J1       0.131500
     46 H31         -1.8210    -2.1380     6.0360 ha         1 7J1       0.128000
     47 H32         -2.4390    -0.0040     7.1040 ha         1 7J1       0.127000
     48 H33         -1.8190     2.1320     6.0400 ha         1 7J1       0.128000
     49 H34         -0.5830     2.1340     3.9070 ha         1 7J1       0.131500
     50 H25         -1.6740    -0.0360    -1.1680 hn         1 7J1       0.317500
     51 H22          0.9730    -0.4580    -2.3720 h1         1 7J1       0.116700
     52 H23         -1.7690     0.0740    -3.5690 hc         1 7J1       0.085200
     53 H24         -0.3150    -0.2630    -4.5170 hc         1 7J1       0.085200
     54 H15         -1.7250    -4.6240    -3.3960 h4         1 7J1       0.179000
     55 H1          -3.4040    -5.2100    -5.3220 ha         1 7J1       0.155000
     56 H12         -2.5430    -1.0140    -5.5500 h4         1 7J1       0.179000
     57 H14         -3.9180    -2.9420    -6.6760 ha         1 7J1       0.155000
     58 H16          1.3770     1.1920    -4.4480 hn         1 7J1       0.341500
     59 H17          0.5690     3.9350    -3.7190 h1         1 7J1       0.099700
     60 H3           2.5810     3.4460    -2.3070 h1         1 7J1       0.042700
     61 H4           2.8630     4.7390    -3.4810 h1         1 7J1       0.042700
     62 H5           5.7960     2.6460    -3.8270 h1         1 7J1       0.033367
     63 H6           5.2360     4.2680    -3.3920 h1         1 7J1       0.033367
     64 H7           4.9940     2.9180    -2.2730 h1         1 7J1       0.033367
     65 H10          0.8570     9.2460    -8.7540 ha         1 7J1       0.132000
     66 H11          4.4740     4.9630    -6.9410 ha         1 7J1       0.146000
     67 H2           6.7300     5.8420    -6.6470 ha         1 7J1       0.131000
     68 H18          1.8990     5.5200    -5.4180 hn         1 7J1       0.320500
     69 H19          2.8160     4.3160    -7.8470 h1         1 7J1       0.062200
     70 H20          1.0910     4.6810    -7.9940 h1         1 7J1       0.062200
     71 H21          0.3550     6.8800    -8.3050 ha         1 7J1       0.133000
     72 H13          7.2320     8.2080    -7.0940 ha         1 7J1       0.130000
     73 H8           5.4850     9.7370    -7.8430 ha         1 7J1       0.134000
     74 H9           3.1160    10.1210    -8.4690 ha         1 7J1       0.135000
     75 O20          3.7580     2.9340    -3.9210 os         1 7J1      -0.429600
@<TRIPOS>BOND
     1    19    20 2   
     2    19    16 1   
     3    15    14 2   
     4    20    18 1   
     5    14    16 1   
     6    14    13 1   
     7    16    17 1   
     8    18    17 2   
     9    26    25 2   
    10    13    12 1   
    11    12    11 1   
    12    12    21 1   
    13    34    32 ar  
    14    34    39 ar  
    15    23    21 1   
    16    23    24 1   
    17    32    33 ar  
    18    25    24 1   
    19    25    35 1   
    20    39    40 ar  
    21    11     1 1   
    22    27    24 1   
    23    27    75 1   
    24     2     1 2   
    25    21    22 2   
    26     1     3 1   
    27    36    35 1   
    28    36    37 1   
    29    33    37 ar  
    30    33    31 ar  
    31    40    31 ar  
    32    75    28 1   
    33    37    38 ar  
    34     3     4 1   
    35    31    29 ar  
    36    10     9 ar  
    37    10     5 ar  
    38    38    30 ar  
    39     4     5 1   
    40    29    30 ar  
    41     9     8 ar  
    42     5     6 ar  
    43     8     7 ar  
    44     6     7 ar  
    45    18    55 1   
    46    34    67 1   
    47    27    60 1   
    48    27    61 1   
    49    28    62 1   
    50    28    63 1   
    51    28    64 1   
    52    40    73 1   
    53    29    74 1   
    54    30    65 1   
    55    32    66 1   
    56    19    56 1   
    57    39    72 1   
    58    20    57 1   
    59    17    54 1   
    60    23    58 1   
    61    24    59 1   
    62    35    68 1   
    63    36    69 1   
    64    36    70 1   
    65    38    71 1   
    66    12    51 1   
    67    13    52 1   
    68    13    53 1   
    69    11    50 1   
    70     3    41 1   
    71     3    42 1   
    72     4    43 1   
    73     4    44 1   
    74     6    45 1   
    75     7    46 1   
    76     8    47 1   
    77     9    48 1   
    78    10    49 1   
@<TRIPOS>SUBSTRUCTURE
     1 7J1         1 TEMP              0 ****  ****    0 ROOT
