@<TRIPOS>MOLECULE
molecule
   57    60     1     0     0
SMALL
bcc


@<TRIPOS>ATOM
      1 C1           0.0000     0.0000     0.0000 cp         1 7J2      -0.046000
      2 C2           1.3930     0.0000     0.0000 ca         1 7J2      -0.100000
      3 C3           2.0810     0.0000     1.1960 ca         1 7J2      -0.158000
      4 C11         -8.5550    -5.5330    -7.4430 c3         1 7J2       0.123400
      5 C13         -7.6420    -4.1580    -5.8650 c          1 7J2       0.822600
      6 C17         -5.7650    -6.4570    -7.4540 c3         1 7J2      -0.092600
      7 C18         -6.8770    -6.5250    -9.6910 c3         1 7J2      -0.092600
      8 C20         -4.4290    -1.5010    -6.0150 ca         1 7J2       0.974900
      9 C22         -5.9050    -2.9400    -7.0460 ca         1 7J2       0.664200
     10 C23         -5.3750    -2.5740    -8.2830 ca         1 7J2      -0.492600
     11 C24         -4.3510    -1.6460    -8.3140 ca         1 7J2       0.521200
     12 C25         -2.0850     0.0160    -3.6010 ca         1 7J2       0.668300
     13 C26         -2.8410     0.0290    -4.9050 c3         1 7J2       0.225200
     14 C28         -3.4200     1.4240    -5.1460 c3         1 7J2      -0.102100
     15 C30         -0.0660     0.0110    -2.5060 ca         1 7J2       0.466200
     16 C4           1.3880     0.0000     2.3960 ca         1 7J2       0.136900
     17 C5           0.0020     0.0010     2.4010 ca         1 7J2      -0.113300
     18 C6          -0.6930     0.0010     1.2090 ca         1 7J2      -0.095000
     19 F7           2.0650    -0.0010     3.5650 f          1 7J2      -0.136900
     20 C8          -0.7460     0.0010     3.7080 c3         1 7J2      -0.045800
     21 C9          -0.7440     0.0060    -1.2840 cp         1 7J2      -0.283600
     22 C10         -7.4270    -4.6970    -8.0780 c3         1 7J2       0.058700
     23 O12         -8.5810    -5.0920    -6.0540 os         1 7J2      -0.383900
     24 N14         -6.9350    -3.8700    -6.9660 n          1 7J2      -0.484300
     25 N19         -3.9050    -1.1350    -7.1770 nb         1 7J2      -0.825000
     26 N21         -5.4100    -2.3870    -5.9440 nb         1 7J2      -0.801000
     27 N27         -3.9310    -0.9490    -4.8470 nu         1 7J2      -0.885900
     28 N29         -0.7670     0.0160    -3.6270 nb         1 7J2      -0.725000
     29 C31         -2.1410     0.0060    -1.3050 ca         1 7J2       0.466200
     30 N32         -2.7640     0.0110    -2.4700 nb         1 7J2      -0.725000
     31 H1           1.9360    -0.0010    -0.9380 ha         1 7J2       0.138000
     32 H2           3.1640    -0.0000     1.1980 ha         1 7J2       0.149000
     33 H3          -9.4830    -5.2060    -7.8950 h1         1 7J2       0.086200
     34 H4          -8.2210    -6.5640    -7.4400 h1         1 7J2       0.086200
     35 H5          -5.5260    -4.9760    -8.9930 hc         1 7J2       0.071700
     36 H6          -4.8150    -6.8870    -7.7460 hc         1 7J2       0.042700
     37 H7          -5.6340    -5.8630    -6.5580 hc         1 7J2       0.042700
     38 H8          -6.4760    -7.2510    -7.2600 hc         1 7J2       0.042700
     39 H9          -6.0650    -6.8980   -10.3040 hc         1 7J2       0.042700
     40 H10         -7.5460    -5.9310   -10.3020 hc         1 7J2       0.042700
     41 H11         -7.4210    -7.3600    -9.2660 hc         1 7J2       0.042700
     42 H12         -5.7570    -3.0070    -9.2000 ha         1 7J2       0.141000
     43 H13         -3.9180    -1.3410    -9.2590 h4         1 7J2       0.028100
     44 H14         -2.1690    -0.2280    -5.7150 h1         1 7J2       0.103700
     45 H15         -3.2150     1.7290    -6.1650 hc         1 7J2       0.049033
     46 H16         -4.4910     1.4040    -4.9840 hc         1 7J2       0.049033
     47 H17         -2.9640     2.1280    -4.4600 hc         1 7J2       0.049033
     48 H18          1.0170     0.0110    -2.5350 h4         1 7J2       0.035100
     49 H19         -1.7770     0.0010     1.2140 ha         1 7J2       0.140000
     50 H20         -0.4540    -0.8640     4.2920 hc         1 7J2       0.050700
     51 H21         -0.5100     0.9040     4.2590 hc         1 7J2       0.050700
     52 H22         -1.8110    -0.0360     3.5150 hc         1 7J2       0.050700
     53 H23         -7.8200    -4.0720    -8.8700 h1         1 7J2       0.073700
     54 H24         -4.3140    -1.2210    -3.9630 hn         1 7J2       0.478800
     55 H25         -2.7050     0.0020    -0.3800 h4         1 7J2       0.035100
     56 O15         -7.4480    -3.6200    -4.7930 o          1 7J2      -0.567500
     57 C16         -6.3140    -5.6080    -8.6020 c3         1 7J2      -0.095700
@<TRIPOS>BOND
     1    14    13 1
     2    27    13 1
     3    27     8 1
     4    13    12 1
     5     8    25 ar
     6     8    26 ar
     7    25    11 ar
     8    26     9 ar
     9    11    10 ar
    10    22     4 1
    11    22    24 1
    12    22    57 1
    13     9    10 ar
    14     9    24 1
    15     7    57 1
    16    12    28 ar
    17    12    30 ar
    18     4    23 1
    19    24     5 1
    20    28    15 ar
    21    57     6 1
    22    30    29 ar
    23     5    23 1
    24     5    56 2
    25    15    21 ar
    26    29    21 ar
    27    21     1 1
    28     1     2 ar
    29     1    18 ar
    30     2     3 ar
    31    18    17 ar
    32     3    16 ar
    33    17    16 ar
    34    17    20 1
    35    16    19 1
    36     2    31 1
    37     3    32 1
    38     4    33 1
    39     4    34 1
    40    57    35 1
    41     6    36 1
    42     6    37 1
    43     6    38 1
    44     7    39 1
    45     7    40 1
    46     7    41 1
    47    10    42 1
    48    11    43 1
    49    13    44 1
    50    14    45 1
    51    14    46 1
    52    14    47 1
    53    15    48 1
    54    18    49 1
    55    20    50 1
    56    20    51 1
    57    20    52 1
    58    22    53 1
    59    27    54 1
    60    29    55 1
@<TRIPOS>SUBSTRUCTURE
     1 7J2         1 TEMP              0 ****  ****    0 ROOT
