@<TRIPOS>MOLECULE
7J2
   57    60     1     0     0
SMALL
bcc


@<TRIPOS>ATOM
      1 C1           0.0000     0.0000     0.0000 cp         1 7J2      -0.038000
      2 C2           1.3930     0.0000     0.0000 ca         1 7J2      -0.078000
      3 C3           2.0810     0.0000     1.1960 ca         1 7J2      -0.121000
      4 C11         -8.5550    -5.5330    -7.4430 c3         1 7J2       0.187400
      5 C13         -7.6420    -4.1580    -5.8650 c          1 7J2       0.760600
      6 C17         -5.7650    -6.4570    -7.4540 c3         1 7J2      -0.002100
      7 C18         -6.8770    -6.5250    -9.6910 c3         1 7J2      -0.002100
      8 C20         -4.4290    -1.5010    -6.0150 ca         1 7J2       0.747900
      9 C22         -5.9050    -2.9400    -7.0460 ca         1 7J2       0.485200
     10 C23         -5.3750    -2.5740    -8.2830 ca         1 7J2      -0.486600
     11 C24         -4.3510    -1.6460    -8.3140 ca         1 7J2       0.521200
     12 C25         -2.0850     0.0160    -3.6010 ca         1 7J2       0.575300
     13 C26         -2.8410     0.0290    -4.9050 c3         1 7J2       0.097200
     14 C28         -3.4200     1.4240    -5.1460 c3         1 7J2      -0.008100
     15 C30         -0.0660     0.0110    -2.5060 ca         1 7J2       0.439700
     16 C4           1.3880     0.0000     2.3960 ca         1 7J2       0.109900
     17 C5           0.0020     0.0010     2.4010 ca         1 7J2      -0.110300
     18 C6          -0.6930     0.0010     1.2090 ca         1 7J2      -0.073000
     19 F7           2.0650    -0.0010     3.5650 f          1 7J2      -0.125900
     20 C8          -0.7460     0.0010     3.7080 c3         1 7J2       0.066200
     21 C9          -0.7440     0.0060    -1.2840 cp         1 7J2      -0.266600
     22 C10         -7.4270    -4.6970    -8.0780 c3         1 7J2      -0.041300
     23 O12         -8.5810    -5.0920    -6.0540 os         1 7J2      -0.378900
     24 N14         -6.9350    -3.8700    -6.9660 n          1 7J2      -0.103300
     25 N19         -3.9050    -1.1350    -7.1770 nb         1 7J2      -0.728000
     26 N21         -5.4100    -2.3870    -5.9440 nb         1 7J2      -0.681000
     27 N27         -3.9310    -0.9490    -4.8470 nu         1 7J2      -0.469900
     28 N29         -0.7670     0.0160    -3.6270 nb         1 7J2      -0.602000
     29 C31         -2.1410     0.0060    -1.3050 ca         1 7J2       0.439700
     30 N32         -2.7640     0.0110    -2.4700 nb         1 7J2      -0.602000
     31 H1           1.9360    -0.0010    -0.9380 ha         1 7J2       0.114000
     32 H2           3.1640    -0.0000     1.1980 ha         1 7J2       0.121000
     33 H3          -9.4830    -5.2060    -7.8950 h1         1 7J2       0.045700
     34 H4          -8.2210    -6.5640    -7.4400 h1         1 7J2       0.045700
     35 H5          -5.5260    -4.9760    -8.9930 hc         1 7J2       0.048700
     36 H6          -4.8150    -6.8870    -7.7460 hc         1 7J2       0.011700
     37 H7          -5.6340    -5.8630    -6.5580 hc         1 7J2       0.011700
     38 H8          -6.4760    -7.2510    -7.2600 hc         1 7J2       0.011700
     39 H9          -6.0650    -6.8980   -10.3040 hc         1 7J2       0.011700
     40 H10         -7.5460    -5.9310   -10.3020 hc         1 7J2       0.011700
     41 H11         -7.4210    -7.3600    -9.2660 hc         1 7J2       0.011700
     42 H12         -5.7570    -3.0070    -9.2000 ha         1 7J2       0.132000
     43 H13         -3.9180    -1.3410    -9.2590 h4         1 7J2      -0.021900
     44 H14         -2.1690    -0.2280    -5.7150 h1         1 7J2       0.071700
     45 H15         -3.2150     1.7290    -6.1650 hc         1 7J2       0.014033
     46 H16         -4.4910     1.4040    -4.9840 hc         1 7J2       0.014033
     47 H17         -2.9640     2.1280    -4.4600 hc         1 7J2       0.014033
     48 H18          1.0170     0.0110    -2.5350 h4         1 7J2      -0.005400
     49 H19         -1.7770     0.0010     1.2140 ha         1 7J2       0.119000
     50 H20         -0.4540    -0.8640     4.2920 hc         1 7J2       0.014367
     51 H21         -0.5100     0.9040     4.2590 hc         1 7J2       0.014367
     52 H22         -1.8110    -0.0360     3.5150 hc         1 7J2       0.014367
     53 H23         -7.8200    -4.0720    -8.8700 h1         1 7J2       0.047700
     54 H24         -4.3140    -1.2210    -3.9630 hn         1 7J2       0.320800
     55 H25         -2.7050     0.0020    -0.3800 h4         1 7J2      -0.005400
     56 O15         -7.4480    -3.6200    -4.7930 o          1 7J2      -0.623500
     57 C16         -6.3140    -5.6080    -8.6020 c3         1 7J2      -0.076700
@<TRIPOS>BOND
     1     1     2 ar  
     2     1    18 ar  
     3     1    21 1   
     4     2     3 ar  
     5     2    31 1   
     6     3    16 ar  
     7     3    32 1   
     8     4    22 1   
     9     4    23 1   
    10     4    33 1   
    11     4    34 1   
    12     5    23 1   
    13     5    24 1   
    14     5    56 2   
    15     6    36 1   
    16     6    37 1   
    17     6    38 1   
    18     6    57 1   
    19     7    39 1   
    20     7    40 1   
    21     7    41 1   
    22     7    57 1   
    23     8    25 ar  
    24     8    26 ar  
    25     8    27 1   
    26     9    10 ar  
    27     9    24 1   
    28     9    26 ar  
    29    10    11 ar  
    30    10    42 1   
    31    11    25 ar  
    32    11    43 1   
    33    12    13 1   
    34    12    28 ar  
    35    12    30 ar  
    36    13    14 1   
    37    13    27 1   
    38    13    44 1   
    39    14    45 1   
    40    14    46 1   
    41    14    47 1   
    42    15    21 ar  
    43    15    28 ar  
    44    15    48 1   
    45    16    17 ar  
    46    16    19 1   
    47    17    18 ar  
    48    17    20 1   
    49    18    49 1   
    50    20    50 1   
    51    20    51 1   
    52    20    52 1   
    53    21    29 ar  
    54    22    24 1   
    55    22    53 1   
    56    22    57 1   
    57    27    54 1   
    58    29    30 ar  
    59    29    55 1   
    60    35    57 1   
@<TRIPOS>SUBSTRUCTURE
     1 7J2         1 TEMP              0 ****  ****    0 ROOT
