@<TRIPOS>MOLECULE
7J5
   65    66     1     0     0
SMALL
bcc


@<TRIPOS>ATOM
      1 CAA         1.8620   -0.9860   -0.2000 c3        1 7J5     -0.124100
      2 CAB        12.9360    0.1620    0.8750 c3        1 7J5     -0.096100
      3 CAF         3.8860    0.9660    2.8550 ce        1 7J5      0.406800
      4 CAG        21.8450    3.7650    0.4510 ca        1 7J5      0.416200
      5 CAH        21.2540    3.2510    1.6370 ca        1 7J5     -0.169300
      6 CAI         5.9250    2.1420    3.5740 ca        1 7J5     -0.070000
      7 CAJ         6.1780    0.0890    2.3220 ca        1 7J5     -0.070000
      8 CAK         7.3020    2.2780    3.6580 ca        1 7J5     -0.188000
      9 CAL         7.5660    0.2080    2.3970 ca        1 7J5     -0.188000
     10 CAM        19.5610    2.2360    0.2550 ca        1 7J5     -0.105300
     11 CAN         2.5450   -1.6920    0.9410 c3        1 7J5      0.148400
     12 CAO        10.3460    0.5600    2.6050 c3        1 7J5      0.130400
     13 CAP        11.7570    1.0410    2.8970 c3        1 7J5     -0.085400
     14 CAQ        14.1250    0.3220    3.0760 c3        1 7J5     -0.111400
     15 CAR        15.1440   -0.7730    2.7580 c3        1 7J5      0.087000
     16 CAS        16.4520   -0.9320    4.9110 c3        1 7J5     -0.054300
     17 CAT        17.6670   -0.0890    5.3320 c2        1 7J5      0.453200
     18 CAY        19.6430    2.5240   -2.1880 c         1 7J5      0.475600
     19 CAZ        17.3960    0.2600    3.1470 c         1 7J5      0.789900
     20 NAC        20.3820    3.1270   -3.3700 n4        1 7J5     -0.749400
     21 NAU         3.0630    0.1460    2.2760 n2        1 7J5     -0.431200
     22 NAV        21.3540    3.5480   -0.7680 nb        1 7J5     -0.690000
     23 OAD        18.6470    1.8840   -2.4860 o         1 7J5     -0.414100
     24 OAE        17.6120    0.7250    2.0160 o         1 7J5     -0.629500
     25 OAW         3.5530   -0.8520    1.5690 os        1 7J5     -0.202300
     26 OAX         9.4810    1.5300    3.2070 os        1 7J5     -0.332900
     27 CBA         5.3440    1.0480    2.9050 ca        1 7J5     -0.185900
     28 CBB         8.1260    1.3020    3.0640 ca        1 7J5      0.132100
     29 CBC        20.1050    2.4830    1.5300 ca        1 7J5     -0.087000
     30 CBD        20.2180    2.7870   -0.8590 ca        1 7J5      0.265800
     31 CBE        12.7970    0.0570    2.3790 c3        1 7J5     -0.058700
     32 NBF        16.3930   -0.7080    3.4660 n         1 7J5     -0.451800
     33 NBG        18.2010    0.5700    4.3430 ne        1 7J5     -0.602100
     34 HAA1        2.6160   -0.5420   -0.8940 hc        1 7J5      0.048700
     35 HAA2        1.2330   -1.7140   -0.7670 hc        1 7J5      0.048700
     36 HAA3        1.2060   -0.1640    0.1770 hc        1 7J5      0.048700
     37 HAN1        3.1730   -2.5510    0.5810 h1        1 7J5      0.056700
     38 HAN2        1.8080   -2.0500    1.7040 h1        1 7J5      0.056700
     39 HAB1       13.3640    1.1520    0.5870 hc        1 7J5      0.039033
     40 HAB2       13.6050   -0.6420    0.4840 hc        1 7J5      0.039033
     41 HAB3       11.9380    0.0530    0.3840 hc        1 7J5      0.039033
     42 HBE        12.4630   -0.9880    2.6380 hc        1 7J5      0.052700
     43 HAF         3.3520    1.7600    3.4230 h4        1 7J5      0.027800
     44 HAG        22.7640    4.3830    0.5000 h4        1 7J5      0.052100
     45 HAH        21.7120    3.4690    2.6150 ha        1 7J5      0.178000
     46 HAI         5.2780    2.9030    4.0380 ha        1 7J5      0.147500
     47 HAK         7.7610    3.1300    4.1790 ha        1 7J5      0.142500
     48 HAJ         5.7460   -0.7770    1.7950 ha        1 7J5      0.147500
     49 HAL         8.1970   -0.5610    1.9320 ha        1 7J5      0.142500
     50 HAM        18.6460    1.6240    0.1510 ha        1 7J5      0.207000
     51 HAO1       10.1570   -0.4470    3.0640 h1        1 7J5      0.041700
     52 HAO2       10.1470    0.5140    1.5020 h1        1 7J5      0.041700
     53 HAP1       11.8660    1.1710    4.0060 hc        1 7J5      0.059200
     54 HAP2       11.9130    2.0470    2.4280 hc        1 7J5      0.059200
     55 HAQ1       14.5240    1.3190    2.7530 hc        1 7J5      0.048700
     56 HAQ2       13.9520    0.3710    4.1840 hc        1 7J5      0.048700
     57 HAR1       14.6880   -1.7790    2.9840 h1        1 7J5      0.072200
     58 HAR2       15.3960   -0.7320    1.6580 h1        1 7J5      0.072200
     59 HAS1       16.6340   -2.0200    5.1180 h1        1 7J5      0.094700
     60 HAS2       15.5220   -0.5990    5.4440 h1        1 7J5      0.094700
     61 HAT1       19.5980    2.0540    2.4150 ha        1 7J5      0.206000
     62 HAT2       18.0380   -0.0710    6.3640 h4        1 7J5      0.066800
     63 HAC1       20.4190    4.1460   -3.2660 hn        1 7J5      0.470800
     64 HAC2       21.3430    2.7700   -3.3910 hn        1 7J5      0.470800
     65 HAC3       19.9060    2.8880   -4.2460 hn        1 7J5      0.470800
@<TRIPOS>BOND
     1    1   11 1   
     2    1   34 1   
     3    1   35 1   
     4    1   36 1   
     5    2   31 1   
     6    2   39 1   
     7    2   40 1   
     8    2   41 1   
     9    3   21 2   
    10    3   27 1   
    11    3   43 1   
    12    4    5 ar  
    13    4   22 ar  
    14    4   44 1   
    15    5   29 ar  
    16    5   45 1   
    17    6    8 ar  
    18    6   27 ar  
    19    6   46 1   
    20    7    9 ar  
    21    7   27 ar  
    22    7   48 1   
    23    8   28 ar  
    24    8   47 1   
    25    9   28 ar  
    26    9   49 1   
    27   10   29 ar  
    28   10   30 ar  
    29   10   50 1   
    30   11   25 1   
    31   11   37 1   
    32   11   38 1   
    33   12   13 1   
    34   12   26 1   
    35   12   51 1   
    36   12   52 1   
    37   13   31 1   
    38   13   53 1   
    39   13   54 1   
    40   14   15 1   
    41   14   31 1   
    42   14   55 1   
    43   14   56 1   
    44   15   32 1   
    45   15   57 1   
    46   15   58 1   
    47   16   17 1   
    48   16   32 1   
    49   16   59 1   
    50   16   60 1   
    51   17   33 2   
    52   17   62 1   
    53   18   20 1   
    54   18   23 2   
    55   18   30 1   
    56   19   24 2   
    57   19   32 1   
    58   19   33 1   
    59   20   63 1   
    60   20   64 1   
    61   20   65 1   
    62   21   25 1   
    63   22   30 ar  
    64   26   28 1   
    65   29   61 1   
    66   31   42 1   
@<TRIPOS>SUBSTRUCTURE
     1 7J5         1 TEMP              0 ****  ****    0 ROOT
