@<TRIPOS>MOLECULE
molecule
   65    67     1     0     0
SMALL
bcc


@<TRIPOS>ATOM
      1 CAA          0.0000     0.0000     0.0000 c3         1 7J5      -0.094100
      2 CAB         12.1450     1.3020     2.2540 c3         1 7J5      -0.154100
      3 CAF          3.9730    -0.0010     2.6280 ce         1 7J5       0.356800
      4 CAG         21.5810     3.8020    -0.1620 ca         1 7J5       0.434200
      5 CAH         20.5340     3.3300     0.6100 ca         1 7J5      -0.208300
      6 CAI          5.2620    -0.0040     4.9910 ca         1 7J5      -0.037000
      7 CAJ          5.8670    -0.0030     2.6520 ca         1 7J5      -0.037000
      8 CAK          6.5970    -0.0050     5.3330 ca         1 7J5      -0.205000
      9 CAL          7.2000    -0.0040     3.0010 ca         1 7J5      -0.205000
     10 CAM         21.1420     1.1080    -0.0400 ca         1 7J5      -0.121300
     11 CAN          1.5290     0.0000     0.0000 c3         1 7J5       0.150400
     12 CAO          9.8310    -0.0050     3.6110 c3         1 7J5       0.140400
     13 CAP         11.2480    -0.0060     4.1860 c3         1 7J5      -0.084400
     14 CAQ         13.6770    -0.1330     3.6100 c3         1 7J5      -0.316400
     15 CAR         14.6800    -0.2580     2.4620 c3         1 7J5       0.304000
     16 CAS         17.6110     1.1290     2.6980 c3         1 7J5       0.002000
     17 CAT         18.2530     2.4100     2.1330 c3         1 7J5      -0.077000
     18 CAY         23.0750     0.7700    -1.5630 c          1 7J5       0.420600
     19 CAZ         16.0830     2.2520     1.4130 c          1 7J5       0.662500
     20 NAC         24.0760     1.2970    -2.2950 nz         1 7J5      -0.671400
     21 NAU          3.4170    -0.0010     1.4610 n2         1 7J5      -0.376200
     22 NAV         22.3560     2.9740    -0.8290 nb         1 7J5      -0.737000
     23 OAD         22.9120    -0.4330    -1.5340 o          1 7J5      -0.428100
     24 OAE         15.0420     2.5240     0.8470 o          1 7J5      -0.648500
     25 OAW          2.0050     0.0000     1.3480 os         1 7J5      -0.220300
     26 OAX          8.8840    -0.0050     4.6810 os         1 7J5      -0.327900
     27 CBA          4.8870    -0.0030     3.6460 ca         1 7J5      -0.155900
     28 CBB          7.5690    -0.0050     4.3410 ca         1 7J5       0.161100
     29 CBC         20.3030     1.9580     0.6790 ca         1 7J5      -0.226400
     30 CBD         22.1730     1.6580    -0.7920 ca         1 7J5       0.285800
     31 CBE         12.2630    -0.0060     3.0400 c3         1 7J5       0.011300
     32 NBF         16.2420     1.1540     2.1630 n          1 7J5      -0.614800
     33 NBG         17.1750     3.0230     1.3400 n          1 7J5      -0.150000
     34 HAA1        -0.3610     0.2680    -0.9850 hc         1 7J5       0.046367
     35 HAA2        -0.3610    -0.9880     0.2600 hc         1 7J5       0.046367
     36 HAA3        -0.3610     0.7190     0.7250 hc         1 7J5       0.046367
     37 HAN1         1.8900     0.8850    -0.5110 h1         1 7J5       0.032700
     38 HAN2         1.8900    -0.8850    -0.5110 h1         1 7J5       0.032700
     39 HAB1        11.4030     1.9380     2.7210 hc         1 7J5       0.069367
     40 HAB2        11.8460     1.0850     1.2360 hc         1 7J5       0.069367
     41 HAB3        13.1030     1.8080     2.2490 hc         1 7J5       0.069367
     42 HBE         12.0630    -0.8420     2.3810 hc         1 7J5       0.060700
     43 HAF          3.3580    -0.0010     3.5210 h4         1 7J5      -0.050200
     44 HAG         21.7640     4.8680    -0.2190 h4         1 7J5       0.043100
     45 HAH         19.9020     4.0210     1.1550 ha         1 7J5       0.161000
     46 HAI          4.5040    -0.0040     5.7650 ha         1 7J5       0.157500
     47 HAK          6.8880    -0.0060     6.3760 ha         1 7J5       0.142000
     48 HAJ          5.5800    -0.0020     1.6070 ha         1 7J5       0.157500
     49 HAL          7.9620    -0.0030     2.2310 ha         1 7J5       0.142000
     50 HAM         20.9950     0.0350    -0.0110 ha         1 7J5       0.163000
     51 HAO1         9.6880     0.8800     3.0020 h1         1 7J5       0.043700
     52 HAO2         9.6880    -0.8900     3.0020 h1         1 7J5       0.043700
     53 HAP1        11.3910    -0.8910     4.7940 hc         1 7J5       0.071700
     54 HAP2        11.3920     0.8780     4.7950 hc         1 7J5       0.071700
     55 HAQ1        14.2050    -0.1560     4.5560 hc         1 7J5       0.139700
     56 HAQ2        13.1400     0.8040     3.5200 hc         1 7J5       0.139700
     57 HAR1        14.4480    -1.1370     1.8740 h1         1 7J5       0.128700
     58 HAR2        14.6220     0.6230     1.8340 h1         1 7J5       0.128700
     59 HAS1        18.1160     0.2910     2.2330 h1         1 7J5       0.091200
     60 HAS2        17.5340     1.2610     3.7710 h1         1 7J5       0.091200
     61 HAT1        18.5530     3.0700     2.9370 h1         1 7J5       0.195700
     62 HAT2        19.0960     2.1640     1.4990 h1         1 7J5       0.195700
     63 HAC1        24.5820     0.5620    -2.7460 hn         1 7J5       0.479133
     64 HAC2        24.6930     1.8090    -1.6970 hn         1 7J5       0.479133
     65 HAC3        23.6950     1.9130    -2.9870 hn         1 7J5       0.479133
@<TRIPOS>BOND
     1     1    11 1   
     2     2    31 1   
     3     3    21 2   
     4     3    27 1   
     5     4     5 ar  
     6     4    22 ar  
     7     5    29 ar  
     8     6     8 ar  
     9     6    27 ar  
    10     7     9 ar  
    11     7    27 ar  
    12     8    28 ar  
    13     9    28 ar  
    14    10    29 ar  
    15    10    30 ar  
    16    11    25 1   
    17    12    13 1   
    18    12    26 1   
    19    13    31 1   
    20    14    15 1   
    21    14    31 1   
    22    15    32 1   
    23    16    17 1   
    24    16    32 1   
    25    17    33 1   
    26    18    20 1   
    27    18    23 2   
    28    18    30 1   
    29    19    24 2   
    30    19    32 1   
    31    19    33 1   
    32    21    25 1   
    33    22    30 ar  
    34    26    28 1   
    35    29    33 1   
    36     1    34 1   
    37     1    35 1   
    38     1    36 1   
    39    11    37 1   
    40    11    38 1   
    41     2    39 1   
    42     2    40 1   
    43     2    41 1   
    44    31    42 1   
    45     3    43 1   
    46     4    44 1   
    47     5    45 1   
    48     6    46 1   
    49     8    47 1   
    50     7    48 1   
    51     9    49 1   
    52    10    50 1   
    53    12    51 1   
    54    12    52 1   
    55    13    53 1   
    56    13    54 1   
    57    14    55 1   
    58    14    56 1   
    59    15    57 1   
    60    15    58 1   
    61    16    59 1   
    62    16    60 1   
    63    17    61 1   
    64    17    62 1   
    65    20    63 1   
    66    20    64 1   
    67    65    20 1   
@<TRIPOS>SUBSTRUCTURE
     1 7J5         1 TEMP              0 ****  ****    0 ROOT
