@<TRIPOS>MOLECULE
7J6
   74    78     1     0     0
SMALL
bcc


@<TRIPOS>ATOM
      1 C1           0.0000     0.0000     0.0000 c3         1 7J6      -0.002100
      2 C2           1.5300     0.0000     0.0000 c3         1 7J6      -0.056500
      3 C3           2.0390     0.0000     1.4430 c3         1 7J6       0.114800
      4 N4           3.5090     0.0190     1.4410 n3         1 7J6      -0.477600
      5 C5           4.0380    -0.0380     2.8100 c3         1 7J6       0.031800
      6 C6           3.6840    -1.3650     3.4310 c          1 7J6       0.586100
      7 C10          4.4260    -2.7240     6.7890 c3         1 7J6      -0.114300
      8 C11          3.3590    -2.8060     7.8830 c3         1 7J6       0.014900
      9 C12          5.5010    -3.7870     7.0130 c3         1 7J6       0.014900
     10 C13          5.0440    -1.3430     6.7580 ca         1 7J6       0.350600
     11 C15          6.1860     0.5320     7.4650 ca         1 7J6       0.394200
     12 C16          5.9810     1.1640     6.2520 ca         1 7J6      -0.166600
     13 C19          8.0940     2.4080     4.0750 ca         1 7J6      -0.097000
     14 C21         10.4630     2.2860     4.3980 ca         1 7J6      -0.088000
     15 C22         10.2790     2.3400     5.7670 ca         1 7J6      -0.095000
     16 C23          9.0020     2.4350     6.2900 ca         1 7J6      -0.097000
     17 C24          5.2790     0.5060     5.2580 ca         1 7J6      -0.133000
     18 C25          4.7960    -0.7810     5.5170 ca         1 7J6      -0.213700
     19 C26          4.0150     1.2010     0.7290 c3         1 7J6       0.019500
     20 C27          3.4890     1.1920    -0.7070 c3         1 7J6      -0.033200
     21 C35          8.1970     3.6330     0.4600 c3         1 7J6       0.188900
     22 C36          7.6220     2.3660    -0.1820 c3         1 7J6       0.031500
     23 O7           3.0520    -2.1820     2.7960 o          1 7J6      -0.639100
     24 N8           4.0690    -1.6420     4.6920 n          1 7J6       0.052000
     25 C9           3.7850    -2.8940     5.4020 c3         1 7J6       0.038000
     26 N14          5.7190    -0.6810     7.6800 nb         1 7J6      -0.505000
     27 C18          7.9100     2.4620     5.4440 ca         1 7J6      -0.096300
     28 C20          9.3700     2.3200     3.5520 ca         1 7J6      -0.095000
     29 N28          2.0200     1.1980    -0.6920 ny         1 7J6       0.034000
     30 C29          5.5210     1.1730     0.7140 c          1 7J6       0.631100
     31 N31          6.1650     2.3600     0.0260 n          1 7J6      -0.265800
     32 C32          5.4090     3.5700    -0.3350 c3         1 7J6       0.031500
     33 C33          6.0930     4.7780     0.3150 c3         1 7J6       0.188900
     34 O34          7.4810     4.7720    -0.0230 os         1 7J6      -0.383600
     35 H38         -0.3610    -0.8880     0.5050 hc         1 7J6       0.036700
     36 H39         -0.3610     0.8810     0.5160 hc         1 7J6       0.036700
     37 H37         -0.3610     0.0070    -1.0210 hc         1 7J6       0.036700
     38 H40          1.8950    -0.8830    -0.5100 hx         1 7J6       0.109700
     39 H42          1.6690     0.8790     1.9560 h1         1 7J6       0.064200
     40 H41          1.6920    -0.8930     1.9480 h1         1 7J6       0.064200
     41 H44          3.6050     0.7630     3.3970 h1         1 7J6       0.065700
     42 H43          5.1150     0.0730     2.7850 h1         1 7J6       0.065700
     43 H47          2.8510    -3.7610     7.8210 hc         1 7J6       0.015200
     44 H48          2.6410    -2.0060     7.7480 hc         1 7J6       0.015200
     45 H49          3.8290    -2.7100     8.8540 hc         1 7J6       0.015200
     46 H52          5.9260    -3.6690     8.0030 hc         1 7J6       0.015200
     47 H50          6.2810    -3.6740     6.2700 hc         1 7J6       0.015200
     48 H51          5.0590    -4.7720     6.9260 hc         1 7J6       0.015200
     49 H53          6.7360     1.0420     8.2480 h4         1 7J6      -0.006900
     50 H58         11.4630     2.2150     3.9880 ha         1 7J6       0.109000
     51 H59         11.1360     2.3170     6.4290 ha         1 7J6       0.106000
     52 H60          8.8580     2.4770     7.3630 ha         1 7J6       0.097500
     53 H61          5.1050     0.9790     4.2990 ha         1 7J6       0.118000
     54 H62          3.6710     2.0970     1.2310 h1         1 7J6       0.034700
     55 H63          3.8390     0.3000    -1.2130 hx         1 7J6       0.096700
     56 H64          3.8470     2.0720    -1.2270 hx         1 7J6       0.096700
     57 H72          9.2440     3.7270     0.1980 h1         1 7J6       0.025200
     58 H71          8.0920     3.5710     1.5370 h1         1 7J6       0.025200
     59 H74          7.8370     2.3670    -1.2440 h1         1 7J6       0.028200
     60 H73          8.0590     1.4920     0.2840 h1         1 7J6       0.028200
     61 H46          2.7140    -3.0160     5.5090 h1         1 7J6       0.044700
     62 H45          4.2560    -3.7200     4.8830 h1         1 7J6       0.044700
     63 H57          9.5140     2.2770     2.4790 ha         1 7J6       0.106000
     64 H66          1.6780     1.2020    -1.6330 hn         1 7J6       0.238800
     65 H68          5.4060     3.6900    -1.4120 h1         1 7J6       0.028200
     66 H67          4.3930     3.4870     0.0310 h1         1 7J6       0.028200
     67 H69          5.9840     4.7180     1.3920 h1         1 7J6       0.025200
     68 H70          5.6370     5.6900    -0.0490 h1         1 7J6       0.025200
     69 H65          1.6970     2.0150    -0.2120 hn         1 7J6       0.238800
     70 O30          6.1140     0.1960     1.1230 o          1 7J6      -0.513100
     71 C17          6.5180     2.5510     6.0150 c3         1 7J6       0.097200
     72 H56          7.2370     2.4310     3.4120 ha         1 7J6       0.097500
     73 H55          5.8740     3.0730     5.3180 hc         1 7J6       0.022700
     74 H54          6.5470     3.0920     6.9540 hc         1 7J6       0.022700
@<TRIPOS>BOND
     1     1     2 1   
     2     1    35 1   
     3     1    36 1   
     4     1    37 1   
     5     2     3 1   
     6     2    29 1   
     7     2    38 1   
     8     3     4 1   
     9     3    39 1   
    10     3    40 1   
    11     4     5 1   
    12     4    19 1   
    13     5     6 1   
    14     5    41 1   
    15     5    42 1   
    16     6    23 2   
    17     6    24 1   
    18     7     8 1   
    19     7     9 1   
    20     7    10 1   
    21     7    25 1   
    22     8    43 1   
    23     8    44 1   
    24     8    45 1   
    25     9    46 1   
    26     9    47 1   
    27     9    48 1   
    28    10    18 ar  
    29    10    26 ar  
    30    11    12 ar  
    31    11    26 ar  
    32    11    49 1   
    33    12    17 ar  
    34    12    71 1   
    35    13    27 ar  
    36    13    28 ar  
    37    13    72 1   
    38    14    15 ar  
    39    14    28 ar  
    40    14    50 1   
    41    15    16 ar  
    42    15    51 1   
    43    16    27 ar  
    44    16    52 1   
    45    17    18 ar  
    46    17    53 1   
    47    18    24 1   
    48    19    20 1   
    49    19    30 1   
    50    19    54 1   
    51    20    29 1   
    52    20    55 1   
    53    20    56 1   
    54    21    22 1   
    55    21    34 1   
    56    21    57 1   
    57    21    58 1   
    58    22    31 1   
    59    22    59 1   
    60    22    60 1   
    61    24    25 1   
    62    25    61 1   
    63    25    62 1   
    64    27    71 1   
    65    28    63 1   
    66    29    64 1   
    67    29    69 1   
    68    30    31 1   
    69    30    70 2   
    70    31    32 1   
    71    32    33 1   
    72    32    65 1   
    73    32    66 1   
    74    33    34 1   
    75    33    67 1   
    76    33    68 1   
    77    71    73 1   
    78    71    74 1   
@<TRIPOS>SUBSTRUCTURE
     1 7J6         1 TEMP              0 ****  ****    0 ROOT
