@<TRIPOS>MOLECULE
molecule
   68    72     1     0     0
SMALL
bcc


@<TRIPOS>ATOM
      1 C01          0.0000     0.0000     0.0000 ce         1 7J9      -0.105400
      2 C02          1.5310     0.0000     0.0000 c3         1 7J9       0.173300
      3 C03          1.9380     0.0000     1.5060 c3         1 7J9      -0.074400
      4 C04          1.5120     1.4230     1.9540 c3         1 7J9      -0.266900
      5 C05         -0.3720     1.2440     0.3910 cf         1 7J9      -0.053400
      6 C06          0.9270     2.0150     0.6350 c3         1 7J9       0.193300
      7 O01          1.8040     1.3940    -0.3650 os         1 7J9      -0.383600
      8 C07         -0.8880    -1.1210    -0.3590 ca         1 7J9      -0.040800
      9 C08         -1.7470     1.7500     0.5500 ca         1 7J9      -0.107800
     10 C09         -1.7130    -1.0280    -1.4830 ca         1 7J9      -0.099000
     11 C10         -2.5420    -2.0790    -1.8140 ca         1 7J9      -0.152000
     12 C11         -2.5560    -3.2280    -1.0330 ca         1 7J9       0.107100
     13 C12         -1.7380    -3.3230     0.0850 ca         1 7J9      -0.152000
     14 C13         -0.9020    -2.2800     0.4210 ca         1 7J9      -0.099000
     15 C14         -2.2200     2.7700    -0.2810 ca         1 7J9      -0.071000
     16 C15         -3.5060     3.2390    -0.1290 ca         1 7J9      -0.195500
     17 C16         -4.3340     2.7000     0.8470 ca         1 7J9       0.168100
     18 C17         -3.8700     1.6850     1.6760 ca         1 7J9      -0.195500
     19 C18         -2.5860     1.2060     1.5280 ca         1 7J9      -0.071000
     20 O02         -3.3790    -4.2580    -1.3600 oh         1 7J9      -0.520100
     21 O03         -5.6020     3.1660     0.9930 os         1 7J9      -0.325900
     22 S01          2.9450     2.3820     2.5170 s6         1 7J9       1.454500
     23 O07          2.5250     3.5930     3.1310 o          1 7J9      -0.613800
     24 O08          3.5250     1.5630     3.6620 os         1 7J9      -0.456800
     25 O04          3.9670     2.3760     1.5300 o          1 7J9      -0.613800
     26 H2           2.0070    -0.7490    -0.6220 h1         1 7J9       0.110700
     27 H3           3.0070    -0.1360     1.6180 hc         1 7J9       0.062700
     28 H4           1.3910    -0.7580     2.0540 hc         1 7J9       0.062700
     29 H5           0.7520     1.3730     2.7250 h1         1 7J9       0.117700
     30 H7           0.8550     3.0950     0.5890 h1         1 7J9       0.116700
     31 H8          -1.7020    -0.1330    -2.0930 ha         1 7J9       0.137500
     32 H9          -3.1820    -2.0090    -2.6850 ha         1 7J9       0.141500
     33 H10         -1.7520    -4.2220     0.6900 ha         1 7J9       0.141500
     34 H11         -0.2640    -2.3560     1.2930 ha         1 7J9       0.137500
     35 H12         -1.5750     3.1910    -1.0430 ha         1 7J9       0.131500
     36 H13         -3.8730     4.0290    -0.7730 ha         1 7J9       0.146500
     37 H14         -4.5200     1.2660     2.4340 ha         1 7J9       0.146500
     38 H15         -2.2240     0.4150     2.1740 ha         1 7J9       0.131500
     39 H16         -2.9280    -4.8500    -1.9390 ho         1 7J9       0.416000
     40 C1           2.8000     1.6280     4.8090 ca         1 7J9       0.101100
     41 C2           1.7950     0.7030     5.0500 ca         1 7J9      -0.119500
     42 C3           1.0590     0.7700     6.2180 ca         1 7J9      -0.089000
     43 C4           1.3250     1.7600     7.1470 ca         1 7J9      -0.010900
     44 C5           2.3270     2.6830     6.9090 ca         1 7J9      -0.089000
     45 C6           3.0690     2.6160     5.7460 ca         1 7J9      -0.119500
     46 Br1          0.3160     1.8510     8.7430 br         1 7J9      -0.075100
     47 C7          -6.3990     2.5660     2.0170 c3         1 7J9       0.129400
     48 C8          -7.7850     3.2160     2.0290 c3         1 7J9      -0.080400
     49 C9          -8.6380     2.5750     3.1260 c3         1 7J9      -0.087400
     50 C19        -10.0240     3.2250     3.1380 c3         1 7J9      -0.060400
     51 C20        -10.8770     2.5840     4.2340 c3         1 7J9      -0.183400
     52 C21        -12.2410     3.2240     4.2470 c          1 7J9       0.890600
     53 O1         -12.5040     4.1030     3.4600 o          1 7J9      -0.855300
     54 O2         -13.1660     2.8180     5.1320 o          1 7J9      -0.855300
     55 H17          1.6330    -0.1130     4.3550 ha         1 7J9       0.154000
     56 H18          0.2820     0.0400     6.4110 ha         1 7J9       0.155000
     57 H19          2.5320     3.4590     7.6370 ha         1 7J9       0.155000
     58 H20          3.8980     3.2970     5.5920 ha         1 7J9       0.154000
     59 H21         -5.9220     2.7140     2.9780 h1         1 7J9       0.034200
     60 H22         -6.4990     1.5050     1.8220 h1         1 7J9       0.034200
     61 H23         -7.6840     4.2770     2.2240 hc         1 7J9       0.054700
     62 H24         -8.2620     3.0680     1.0680 hc         1 7J9       0.054700
     63 H25         -8.1610     2.7230     4.0870 hc         1 7J9       0.030700
     64 H26         -8.7380     1.5140     2.9320 hc         1 7J9       0.030700
     65 H27        -10.5000     3.0780     2.1770 hc         1 7J9       0.048700
     66 H28         -9.9230     4.2860     3.3330 hc         1 7J9       0.048700
     67 H29        -10.9780     1.5230     4.0390 hc         1 7J9       0.027700
     68 H30        -10.4000     2.7310     5.1950 hc         1 7J9       0.027700
@<TRIPOS>BOND
     1    20    12 1
     2    12    13 ar
     3    12    11 ar
     4    13    14 ar
     5    11    10 ar
     6    14     8 ar
     7    10     8 ar
     8     8     1 1
     9     1     5 2
    10     1     2 1
    11    15    16 ar
    12    15     9 ar
    13     5     9 1
    14     5     6 1
    15    16    17 ar
    16     9    19 ar
    17     2     7 1
    18     2     3 1
    19    17    21 1
    20    17    18 ar
    21    19    18 ar
    22     7     6 1
    23     6     4 1
    24     3     4 1
    25     4    22 1
    26    23    22 2
    27    22    25 2
    28    22    24 1
    29     2    26 1
    30     3    27 1
    31     3    28 1
    32     4    29 1
    33     6    30 1
    34    10    31 1
    35    11    32 1
    36    13    33 1
    37    14    34 1
    38    15    35 1
    39    16    36 1
    40    18    37 1
    41    19    38 1
    42    20    39 1
    43    24    40 1
    44    40    41 ar
    45    41    42 ar
    46    42    43 ar
    47    43    44 ar
    48    44    45 ar
    49    45    40 ar
    50    43    46 1
    51    21    47 1
    52    47    48 1
    53    48    49 1
    54    49    50 1
    55    50    51 1
    56    51    52 1
    57    52    53 1
    58    52    54 1
    59    41    55 1
    60    42    56 1
    61    44    57 1
    62    45    58 1
    63    47    59 1
    64    47    60 1
    65    48    61 1
    66    48    62 1
    67    49    63 1
    68    49    64 1
    69    50    65 1
    70    50    66 1
    71    51    67 1
    72    51    68 1
@<TRIPOS>SUBSTRUCTURE
     1 7J9         1 TEMP              0 ****  ****    0 ROOT
