@<TRIPOS>MOLECULE
molecule
   41    43     1     0     0
SMALL
bcc


@<TRIPOS>ATOM
      1 C1           0.0000     0.0000     0.0000 c3         1 7JB      -0.108433
      2 C2           1.5300     0.0000     0.0000 c3         1 7JB       0.244200
      3 C3           2.0400     0.0000     1.4430 c3         1 7JB      -0.108433
      4 C9          -0.2070     2.8150    -0.6050 ca         1 7JB      -0.303500
      5 C10         -0.5960     3.0300    -1.9130 ca         1 7JB      -0.016000
      6 C11         -1.9390     3.1200    -2.2410 ca         1 7JB      -0.107000
      7 C12         -2.9030     2.9920    -1.2480 ca         1 7JB      -0.081600
      8 C13         -2.5070     2.7720     0.0850 ca         1 7JB      -0.157600
      9 C14         -1.1550     2.6850     0.3970 ca         1 7JB       0.012000
     10 C15         -3.5340     2.6380     1.1410 c          1 7JB       0.588300
     11 C19         -7.1500     3.5720     1.5830 ca         1 7JB      -0.114000
     12 C20         -7.5390     3.7880     0.2740 ca         1 7JB      -0.115000
     13 C21         -6.6340     3.6320    -0.7620 ca         1 7JB      -0.079000
     14 C22         -5.3240     3.2560    -0.4850 ca         1 7JB      -0.135600
     15 C4           2.0410    -1.2480    -0.7220 c3         1 7JB      -0.108433
     16 N5           2.0180     1.1970    -0.6900 n7         1 7JB      -0.906100
     17 S6           1.5050     2.6970    -0.2090 sy         1 7JB       1.425200
     18 O7           2.1750     3.6350    -1.0390 o          1 7JB      -0.632300
     19 O8           1.5920     2.7150     1.2090 o          1 7JB      -0.632300
     20 O16         -3.2360     2.2060     2.2370 o          1 7JB      -0.509100
     21 C17         -4.9280     3.0360     0.8480 ca         1 7JB      -0.131600
     22 C18         -5.8500     3.1970     1.8770 ca         1 7JB      -0.080000
     23 C23         -4.3410     3.0860    -1.5780 c          1 7JB       0.582300
     24 O24         -4.7120     3.0250    -2.7340 o          1 7JB      -0.505100
     25 H1          -0.3610     0.3570    -0.9570 hc         1 7JB       0.048589
     26 H2          -0.3610    -1.0070     0.1690 hc         1 7JB       0.048589
     27 H3          -0.3610     0.6500     0.7880 hc         1 7JB       0.048589
     28 H4           2.0230    -1.0110     1.8320 hc         1 7JB       0.048589
     29 H5           3.0540     0.3800     1.4680 hc         1 7JB       0.048589
     30 H6           1.4030     0.6310     2.0510 hc         1 7JB       0.048589
     31 H7           0.1540     3.1290    -2.6880 ha         1 7JB       0.153000
     32 H8          -2.2370     3.2880    -3.2690 ha         1 7JB       0.161000
     33 H9          -0.8430     2.5170     1.4210 ha         1 7JB       0.180000
     34 H10         -7.8680     3.6970     2.3850 ha         1 7JB       0.140000
     35 H11         -8.5590     4.0810     0.0570 ha         1 7JB       0.140000
     36 H12         -6.9450     3.8030    -1.7850 ha         1 7JB       0.156000
     37 H13          3.1240    -1.2500    -0.7170 hc         1 7JB       0.048589
     38 H14          1.6760    -2.1330    -0.2150 hc         1 7JB       0.048589
     39 H15          1.6840    -1.2450    -1.7450 hc         1 7JB       0.048589
     40 H16          2.6830     1.1100    -1.4330 hn         1 7JB       0.455800
     41 H17         -5.5520     3.0290     2.9040 ha         1 7JB       0.157000
@<TRIPOS>BOND
     1    24    23 2
     2    13    12 ar
     3    13    14 ar
     4    23    14 1
     5    23     7 1
     6     6     7 ar
     7     6     5 ar
     8    12    11 ar
     9    14    21 ar
    10     7     8 ar
    11     5     4 ar
    12    11    22 ar
    13    21    22 ar
    14    21    10 1
    15     8     9 ar
    16     8    10 1
    17     4     9 ar
    18     4    17 1
    19    19    17 2
    20    16    17 1
    21    16     2 1
    22    10    20 2
    23    15     2 1
    24    17    18 2
    25     1     2 1
    26     2     3 1
    27     1    25 1
    28     1    26 1
    29     1    27 1
    30     3    28 1
    31     3    29 1
    32     3    30 1
    33     5    31 1
    34     6    32 1
    35     9    33 1
    36    11    34 1
    37    12    35 1
    38    13    36 1
    39    15    37 1
    40    15    38 1
    41    15    39 1
    42    16    40 1
    43    22    41 1
@<TRIPOS>SUBSTRUCTURE
     1 7JB         1 TEMP              0 ****  ****    0 ROOT
