@<TRIPOS>MOLECULE
7JC
   48    51     1     0     0
SMALL
bcc


@<TRIPOS>ATOM
      1 C1           0.0000     0.0000     0.0000 cc         1 7JC       0.440700
      2 C2           1.8900     0.0000     1.1740 cd         1 7JC       0.382200
      3 C3           1.0600     0.0020     2.2210 cc         1 7JC      -0.155700
      4 C7           4.0900     4.1090     4.4460 ca         1 7JC       0.120000
      5 C8           4.1370     5.4070     4.9090 ca         1 7JC      -0.209500
      6 C9           3.0050     6.0030     5.4430 ca         1 7JC       0.071000
      7 C10          1.8140     5.3090     5.5200 ca         1 7JC      -0.201000
      8 C11          1.7480     4.0030     5.0600 ca         1 7JC       0.003600
      9 C12          0.5270     2.0050     4.6670 c          1 7JC       0.608500
     10 C14          4.6620     8.1180     3.0630 cx         1 7JC       0.077200
     11 C15          5.1600     9.4510     2.5020 cx         1 7JC      -0.072900
     12 C16          4.6490     9.3710     3.9420 cx         1 7JC      -0.072900
     13 O3           5.5620     7.3270     5.8150 o          1 7JC      -0.585300
     14 S1           5.6460     6.3140     4.8220 sy         1 7JC       1.046200
     15 O2           6.6890     5.3520     4.7780 o          1 7JC      -0.585300
     16 N3           5.6650     7.0930     3.3610 n7         1 7JC      -0.522100
     17 C17          3.3170     7.5970     2.5560 c3         1 7JC       0.024900
     18 C6           2.8930     3.3990     4.5130 ca         1 7JC      -0.256600
     19 C5           2.7880     2.0090     4.0340 c          1 7JC       0.649100
     20 O            3.7500     1.4410     3.5540 o          1 7JC      -0.641500
     21 N2           0.5710     3.2710     5.1180 n          1 7JC       0.045000
     22 O1          -0.5210     1.3960     4.7400 o          1 7JC      -0.696500
     23 N1           1.5960     1.3850     4.1410 n          1 7JC      -0.097400
     24 C4           1.4650     0.0030     3.6720 c3         1 7JC       0.149300
     25 N            1.2900     0.0000     0.0000 nd         1 7JC      -0.576000
     26 S           -0.5900     0.0020     1.6040 ss         1 7JC      -0.281300
     27 C           -0.8620     0.0050    -1.2360 c3         1 7JC      -0.004400
     28 H3           2.9680    -0.0000     1.2810 h4         1 7JC       0.017100
     29 H6           4.9770     3.6460     4.0300 ha         1 7JC       0.145000
     30 H7           3.0550     7.0240     5.8030 ha         1 7JC       0.127000
     31 H8           0.9340     5.7830     5.9390 ha         1 7JC       0.128000
     32 H9          -1.4470     3.1620     5.6620 h1         1 7JC       0.030700
     33 H11         -0.4460     4.1860     6.7010 h1         1 7JC       0.030700
     34 H10         -0.9110     4.7470     5.0890 h1         1 7JC       0.030700
     35 H14          6.2340     9.5400     2.3920 hc         1 7JC       0.056450
     36 H13          4.4970     9.9390     1.7980 hc         1 7JC       0.056450
     37 H16          5.4110     9.4100     4.7110 hc         1 7JC       0.056450
     38 H15          3.6750     9.8090     4.1170 hc         1 7JC       0.056450
     39 H12          6.3660     6.8670     2.6830 hn         1 7JC       0.348800
     40 H19          3.0060     8.1760     1.6940 hc         1 7JC       0.010367
     41 H18          3.4160     6.5560     2.2740 hc         1 7JC       0.010367
     42 H17          2.5750     7.6900     3.3400 hc         1 7JC       0.010367
     43 H5           0.7100    -0.5080     4.2580 h1         1 7JC       0.058200
     44 H4           2.4140    -0.5080     3.7820 h1         1 7JC       0.058200
     45 H1          -1.5710    -0.8120    -1.1860 hc         1 7JC       0.019367
     46 H2          -0.2360    -0.1120    -2.1130 hc         1 7JC       0.019367
     47 H           -1.3980     0.9450    -1.2990 hc         1 7JC       0.019367
     48 C13         -0.6370     3.8810     5.6790 c3         1 7JC       0.053300
@<TRIPOS>BOND
     1     1    25 2   
     2     1    26 1   
     3     1    27 1   
     4     2     3 2   
     5     2    25 1   
     6     2    28 1   
     7     3    24 1   
     8     3    26 1   
     9     4     5 ar  
    10     4    18 ar  
    11     4    29 1   
    12     5     6 ar  
    13     5    14 1   
    14     6     7 ar  
    15     6    30 1   
    16     7     8 ar  
    17     7    31 1   
    18     8    18 ar  
    19     8    21 1   
    20     9    21 1   
    21     9    22 2   
    22     9    23 1   
    23    10    11 1   
    24    10    12 1   
    25    10    16 1   
    26    10    17 1   
    27    11    12 1   
    28    11    35 1   
    29    11    36 1   
    30    12    37 1   
    31    12    38 1   
    32    13    14 2   
    33    14    15 2   
    34    14    16 1   
    35    16    39 1   
    36    17    40 1   
    37    17    41 1   
    38    17    42 1   
    39    18    19 1   
    40    19    20 2   
    41    19    23 1   
    42    21    48 1   
    43    23    24 1   
    44    24    43 1   
    45    24    44 1   
    46    27    45 1   
    47    27    46 1   
    48    27    47 1   
    49    32    48 1   
    50    33    48 1   
    51    34    48 1   
@<TRIPOS>SUBSTRUCTURE
     1 7JC         1 TEMP              0 ****  ****    0 ROOT
