@<TRIPOS>MOLECULE
7JD
   28    30     1     0     0
SMALL
bcc


@<TRIPOS>ATOM
      1 C4           0.0000     0.0000     0.0000 ca         1 7JD       0.145100
      2 C5           3.5740     0.0050     1.1840 cp         1 7JD      -0.048000
      3 C6           4.2570    -0.0080    -0.0320 ca         1 7JD      -0.072000
      4 C7           5.6360    -0.0030    -0.0460 ca         1 7JD      -0.129000
      5 C8           6.3440     0.0140     1.1450 ca         1 7JD       0.106900
      6 C10          4.2900     0.0280     2.3790 ca         1 7JD      -0.072000
      7 C13          0.0260     0.0070     2.4310 ca         1 7JD      -0.188600
      8 C1           1.4180     0.0120     2.4190 ca         1 7JD      -0.039000
      9 C2           2.0910     0.0000     1.2040 cp         1 7JD      -0.028000
     10 C3           1.3790     0.0000     0.0000 ca         1 7JD      -0.123000
     11 C9           5.6690     0.0270     2.3560 ca         1 7JD      -0.129000
     12 F11          7.6940     0.0180     1.1260 f          1 7JD      -0.127900
     13 O12         -0.6820    -0.0060    -1.1750 oh         1 7JD      -0.479100
     14 C14         -0.6960     0.0010     1.2180 ca         1 7JD       0.116400
     15 N15         -2.0510    -0.0040     1.2590 nc         1 7JD      -0.515100
     16 C16         -2.7000    -0.0030     2.3830 cd         1 7JD       0.320800
     17 N17         -2.0890     0.0030     3.5980 ns         1 7JD      -0.018400
     18 C18         -0.7380     0.0090     3.6890 c          1 7JD       0.616100
     19 O19         -0.1780     0.0140     4.7690 o          1 7JD      -0.662500
     20 H1           3.7050    -0.0230    -0.9640 ha         1 7JD       0.117500
     21 H2           6.1670    -0.0130    -0.9910 ha         1 7JD       0.120000
     22 H3           3.7640     0.0380     3.3260 ha         1 7JD       0.117500
     23 H4           1.9680    -0.1080     3.3450 ha         1 7JD       0.135000
     24 H5           1.9150    -0.0010    -0.9410 ha         1 7JD       0.123000
     25 H6           6.2260     0.0430     3.2850 ha         1 7JD       0.120000
     26 H7          -0.6570     0.8560    -1.5580 ho         1 7JD       0.403000
     27 H8          -3.7830    -0.0080     2.3520 h5         1 7JD       0.004800
     28 H9          -2.6430     0.0030     4.4320 hn         1 7JD       0.183500
@<TRIPOS>BOND
     1     1    10 ar  
     2     1    13 1   
     3     1    14 ar  
     4     2     3 ar  
     5     2     6 ar  
     6     2     9 1   
     7     3     4 ar  
     8     3    20 1   
     9     4     5 ar  
    10     4    21 1   
    11     5    11 ar  
    12     5    12 1   
    13     6    11 ar  
    14     6    22 1   
    15     7     8 ar  
    16     7    14 ar  
    17     7    18 1   
    18     8     9 ar  
    19     8    23 1   
    20     9    10 ar  
    21    10    24 1   
    22    11    25 1   
    23    13    26 1   
    24    14    15 1   
    25    15    16 2   
    26    16    17 1   
    27    16    27 1   
    28    17    18 1   
    29    17    28 1   
    30    18    19 2   
@<TRIPOS>SUBSTRUCTURE
     1 7JD         1 TEMP              0 ****  ****    0 ROOT
