@<TRIPOS>MOLECULE
molecule
   28    30     1     0     0
SMALL
bcc


@<TRIPOS>ATOM
      1 C4           0.0000     0.0000     0.0000 ca         1 7JD       0.124100
      2 C5           3.5740     0.0050     1.1840 cp         1 7JD      -0.054000
      3 C6           4.2570    -0.0080    -0.0320 ca         1 7JD      -0.093000
      4 C7           5.6360    -0.0030    -0.0460 ca         1 7JD      -0.164500
      5 C8           6.3440     0.0140     1.1450 ca         1 7JD       0.136900
      6 C10          4.2900     0.0280     2.3790 ca         1 7JD      -0.093000
      7 C13          0.0260     0.0070     2.4310 ca         1 7JD      -0.187600
      8 C1           1.4180     0.0120     2.4190 ca         1 7JD      -0.059000
      9 C2           2.0910     0.0000     1.2040 cp         1 7JD      -0.038000
     10 C3           1.3790     0.0000     0.0000 ca         1 7JD      -0.128000
     11 C9           5.6690     0.0270     2.3560 ca         1 7JD      -0.164500
     12 F11          7.6940     0.0180     1.1260 f          1 7JD      -0.138900
     13 O12         -0.6820    -0.0060    -1.1750 oh         1 7JD      -0.498100
     14 C14         -0.6960     0.0010     1.2180 ca         1 7JD       0.171400
     15 N15         -2.0510    -0.0040     1.2590 nc         1 7JD      -0.627100
     16 C16         -2.7000    -0.0030     2.3830 cd         1 7JD       0.498800
     17 N17         -2.0890     0.0030     3.5980 ns         1 7JD      -0.478400
     18 C18         -0.7380     0.0090     3.6890 c          1 7JD       0.706100
     19 O19         -0.1780     0.0140     4.7690 o          1 7JD      -0.619500
     20 H1           3.7050    -0.0230    -0.9640 ha         1 7JD       0.142000
     21 H2           6.1670    -0.0130    -0.9910 ha         1 7JD       0.148000
     22 H3           3.7640     0.0380     3.3260 ha         1 7JD       0.142000
     23 H4           1.9680    -0.1080     3.3450 ha         1 7JD       0.160000
     24 H5           1.9150    -0.0010    -0.9410 ha         1 7JD       0.147000
     25 H6           6.2260     0.0430     3.2850 ha         1 7JD       0.148000
     26 H7          -0.6570     0.8560    -1.5580 ho         1 7JD       0.421000
     27 H8          -3.7830    -0.0080     2.3520 h5         1 7JD       0.057800
     28 H9          -2.6430     0.0030     4.4320 hn         1 7JD       0.339500
@<TRIPOS>BOND
     1    12     5 1
     2    11     5 ar
     3    11     6 ar
     4     5     4 ar
     5     6     2 ar
     6     4     3 ar
     7     2     3 ar
     8     2     9 1
     9     9     8 ar
    10     9    10 ar
    11     8     7 ar
    12    10     1 ar
    13     7    18 1
    14     7    14 ar
    15    19    18 2
    16     1    14 ar
    17     1    13 1
    18    18    17 1
    19    14    15 1
    20    17    16 1
    21    15    16 2
    22     3    20 1
    23     4    21 1
    24     6    22 1
    25     8    23 1
    26    10    24 1
    27    11    25 1
    28    13    26 1
    29    16    27 1
    30    17    28 1
@<TRIPOS>SUBSTRUCTURE
     1 7JD         1 TEMP              0 ****  ****    0 ROOT
