@<TRIPOS>MOLECULE
7JE
   61    65     1     0     0
SMALL
bcc


@<TRIPOS>ATOM
      1 C4           0.0000     0.0000     0.0000 ca         1 7JE      -0.064000
      2 C5           1.3830     0.0000     0.0000 ca         1 7JE      -0.114300
      3 C6           2.0730     0.0000     1.1970 ca         1 7JE      -0.075000
      4 C8           2.1360    -0.0020    -1.3060 c3         1 7JE       0.316700
      5 C10          1.3230     3.3070    -2.9160 ca         1 7JE      -0.125000
      6 C13          3.4560     2.0800    -1.6110 ca         1 7JE      -0.007000
      7 C15          3.5860     3.3960    -2.0680 ca         1 7JE      -0.272900
      8 C20          3.7610     5.6410     6.5050 ca         1 7JE      -0.107000
      9 C21          3.2900     3.0190     5.6950 ca         1 7JE      -0.168600
     10 C22          2.8290     4.0820     4.9160 ca         1 7JE      -0.082000
     11 C24          2.5910     6.5200     4.4850 cp         1 7JE      -0.041000
     12 C28          4.2100     4.5920     7.2830 ca         1 7JE       0.065100
     13 C1           1.3820     0.0010     2.3940 ca         1 7JE      -0.131300
     14 C2          -0.0000     0.0020     2.3940 ca         1 7JE      -0.082000
     15 C3          -0.6910     0.0070     1.1960 ca         1 7JE      -0.107000
     16 O9           1.4180    -0.7750    -2.2690 oh         1 7JE      -0.584800
     17 C11          1.2170     2.0250    -2.4550 ca         1 7JE      -0.029000
     18 C12          2.2810     1.4120    -1.8040 ca         1 7JE      -0.161300
     19 C14          2.5090     4.0130    -2.7340 ca         1 7JE      -0.162200
     20 C16          4.6620     4.3820    -2.0270 cc         1 7JE       0.434800
     21 N17          4.2400     5.4560    -2.6320 nd         1 7JE      -0.620100
     22 N18          2.9250     5.2740    -3.0720 na         1 7JE       0.451900
     23 N19          2.3810     1.3810     4.1210 ns         1 7JE      -0.206900
     24 C23          3.0700     5.3900     5.3180 cp         1 7JE      -0.039000
     25 C25          3.0440     1.6280     5.2690 c          1 7JE       0.594700
     26 O26          3.4380     0.7040     5.9540 o          1 7JE      -0.627100
     27 C27          3.9790     3.2780     6.8870 ca         1 7JE       0.174100
     28 O29          4.8790     4.8440     8.4410 oh         1 7JE      -0.494100
     29 O30          4.4300     2.2490     7.6480 oh         1 7JE      -0.461100
     30 C31          2.8300     7.8340     4.8860 ca         1 7JE      -0.075000
     31 C32          2.3830     8.8830     4.1090 ca         1 7JE      -0.126000
     32 C33          1.6970     8.6310     2.9320 ca         1 7JE       0.104900
     33 C34          1.4570     7.3270     2.5300 ca         1 7JE      -0.126000
     34 C35          1.9050     6.2730     3.2980 ca         1 7JE      -0.075000
     35 F36          1.2610     9.6600     2.1730 f          1 7JE      -0.127900
     36 C37          2.1200     6.2720    -3.7820 c3         1 7JE       0.036600
     37 H1          -0.5420     0.0020    -0.9380 ha         1 7JE       0.119000
     38 H2           3.1560    -0.0000     1.1970 ha         1 7JE       0.109000
     39 H3           1.5500    -0.5090     4.4540 h1         1 7JE       0.029200
     40 H4           3.0820    -0.5100     3.5690 h1         1 7JE       0.029200
     41 H5           3.1180    -0.4340    -1.1550 h1         1 7JE       0.005700
     42 H6           0.4860     3.7720    -3.4220 ha         1 7JE       0.107000
     43 H7           4.3160     1.5590    -1.2090 ha         1 7JE       0.102000
     44 H9           2.2930     3.8870     3.9950 ha         1 7JE       0.116000
     45 H10         -0.5420     0.0050     3.3320 ha         1 7JE       0.108000
     46 H11         -1.7740     0.0070     1.1960 ha         1 7JE       0.106000
     47 H12          1.9610    -1.4850    -2.5700 ho         1 7JE       0.394000
     48 H13          0.2940     1.4780    -2.6030 ha         1 7JE       0.116000
     49 H14          5.6410     4.2410    -1.5860 h4         1 7JE       0.014800
     50 H15          2.0590     2.1420     3.5560 hn         1 7JE       0.180500
     51 H16          5.7610     5.1110     8.2430 ho         1 7JE       0.409000
     52 H17          3.9290     2.2050     8.4460 ho         1 7JE       0.412000
     53 H18          3.3660     8.0310     5.8060 ha         1 7JE       0.114000
     54 H19          2.5680     9.9040     4.4190 ha         1 7JE       0.119500
     55 H20          0.9220     7.1350     1.6070 ha         1 7JE       0.119500
     56 H21          1.7170     5.2540     2.9820 ha         1 7JE       0.114000
     57 H22          2.7020     7.1760    -3.9160 h1         1 7JE       0.018033
     58 H23          1.8330     5.8820    -4.7510 h1         1 7JE       0.018033
     59 H24          1.2320     6.4970    -3.2050 h1         1 7JE       0.018033
     60 C7           2.1360     0.0010     3.6990 c3         1 7JE       0.116300
     61 H8           3.9450     6.6620     6.8160 ha         1 7JE       0.122000
@<TRIPOS>BOND
     1     1     2 ar  
     2     1    15 ar  
     3     1    37 1   
     4     2     3 ar  
     5     2     4 1   
     6     3    13 ar  
     7     3    38 1   
     8     4    16 1   
     9     4    18 1   
    10     4    41 1   
    11     5    17 ar  
    12     5    19 ar  
    13     5    42 1   
    14     6     7 ar  
    15     6    18 ar  
    16     6    43 1   
    17     7    19 ar  
    18     7    20 1   
    19     8    12 ar  
    20     8    24 ar  
    21     8    61 1   
    22     9    10 ar  
    23     9    25 1   
    24     9    27 ar  
    25    10    24 ar  
    26    10    44 1   
    27    11    24 1   
    28    11    30 ar  
    29    11    34 ar  
    30    12    27 ar  
    31    12    28 1   
    32    13    14 ar  
    33    13    60 1   
    34    14    15 ar  
    35    14    45 1   
    36    15    46 1   
    37    16    47 1   
    38    17    18 ar  
    39    17    48 1   
    40    19    22 1   
    41    20    21 2   
    42    20    49 1   
    43    21    22 1   
    44    22    36 1   
    45    23    25 1   
    46    23    50 1   
    47    23    60 1   
    48    25    26 2   
    49    27    29 1   
    50    28    51 1   
    51    29    52 1   
    52    30    31 ar  
    53    30    53 1   
    54    31    32 ar  
    55    31    54 1   
    56    32    33 ar  
    57    32    35 1   
    58    33    34 ar  
    59    33    55 1   
    60    34    56 1   
    61    36    57 1   
    62    36    58 1   
    63    36    59 1   
    64    39    60 1   
    65    40    60 1   
@<TRIPOS>SUBSTRUCTURE
     1 7JE         1 TEMP              0 ****  ****    0 ROOT
