@<TRIPOS>MOLECULE
7JF
   38    41     1     0     0
SMALL
bcc


@<TRIPOS>ATOM
      1 C10          0.0000     0.0000     0.0000 ca         1 7JF       0.110900
      2 C15          2.7420     1.1010     5.7710 ca         1 7JF       0.122400
      3 C17          1.2160     2.2780     4.2280 c          1 7JF       0.629100
      4 C22          2.2640    -3.3100     3.0620 ca         1 7JF      -0.071500
      5 C24          3.8950    -4.9080     2.3260 ca         1 7JF       0.107900
      6 C26          4.6030    -2.8010     3.2300 ca         1 7JF      -0.071500
      7 C01          3.6100    -1.0900     5.2570 ca         1 7JF       0.068900
      8 C02          2.9140    -1.0940     4.0430 cp         1 7JF      -0.040000
      9 C03          2.1190     0.0020     3.6840 cq         1 7JF       0.079000
     10 C04          3.5280    -0.0080     6.1140 ca         1 7JF       0.124100
     11 O05          4.2170    -0.0350     7.2860 oh         1 7JF      -0.469100
     12 C07          1.3810     0.0010     2.4010 cq         1 7JF      -0.057000
     13 C08          2.0780     0.0000     1.1930 ca         1 7JF      -0.041000
     14 C09          1.3850     0.0000     0.0000 ca         1 7JF      -0.131000
     15 C11         -0.6970     0.0010     1.1980 ca         1 7JF      -0.131000
     16 C12         -0.0150     0.0010     2.3950 ca         1 7JF      -0.041000
     17 F13         -0.4040     0.2270    -1.2840 f          1 7JF      -0.135900
     18 C14          3.2800    -2.4380     3.4190 cp         1 7JF      -0.048000
     19 C16          2.0330     1.1020     4.5510 ca         1 7JF      -0.195600
     20 N18          1.1960     3.2890     5.1270 ns         1 7JF      -0.030400
     21 C19          1.9150     3.2060     6.2770 cc         1 7JF       0.333800
     22 N20          2.6420     2.1770     6.5900 nd         1 7JF      -0.526100
     23 O21          0.5870     2.3050     3.2250 o          1 7JF      -0.631500
     24 C23          2.5720    -4.5450     2.5160 ca         1 7JF      -0.127000
     25 C25          4.9100    -4.0360     2.6830 ca         1 7JF      -0.127000
     26 H1           1.2290    -3.0260     3.2100 ha         1 7JF       0.126000
     27 H2           5.3970    -2.1190     3.5090 ha         1 7JF       0.126000
     28 H3           3.7220    -0.5140     7.9300 ho         1 7JF       0.412000
     29 H4           3.1610    -0.0320     1.1920 ha         1 7JF       0.108500
     30 H5           1.9270    -0.0010    -0.9380 ha         1 7JF       0.119000
     31 H6          -1.7810     0.0010     1.1940 ha         1 7JF       0.119000
     32 H7          -0.5600    -0.0290     3.3310 ha         1 7JF       0.108500
     33 H8           0.6950     4.1320     4.9240 hn         1 7JF       0.184500
     34 H9           1.8910     4.0210     6.9910 h5         1 7JF       0.008800
     35 H10          1.7770    -5.2270     2.2370 ha         1 7JF       0.121000
     36 H11          5.9450    -4.3200     2.5350 ha         1 7JF       0.121000
     37 F06          4.9240    -1.4510     5.1970 f          1 7JF      -0.122900
     38 F27          4.1970    -6.1200     1.7760 f          1 7JF      -0.132900
@<TRIPOS>BOND
     1     1    14 ar  
     2     1    15 ar  
     3     1    17 1   
     4     2    10 ar  
     5     2    19 ar  
     6     2    22 1   
     7     3    19 1   
     8     3    20 1   
     9     3    23 2   
    10     4    18 ar  
    11     4    24 ar  
    12     4    26 1   
    13     5    24 ar  
    14     5    25 ar  
    15     5    38 1   
    16     6    18 ar  
    17     6    25 ar  
    18     6    27 1   
    19     7     8 ar  
    20     7    10 ar  
    21     7    37 1   
    22     8     9 2   
    23     8    18 1   
    24     9    12 1   
    25     9    19 1   
    26    10    11 1   
    27    11    28 1   
    28    12    13 1   
    29    12    16 2   
    30    13    14 ar  
    31    13    29 1   
    32    14    30 1   
    33    15    16 ar  
    34    15    31 1   
    35    16    32 1   
    36    20    21 1   
    37    20    33 1   
    38    21    22 2   
    39    21    34 1   
    40    24    35 1   
    41    25    36 1   
@<TRIPOS>SUBSTRUCTURE
     1 7JF         1 TEMP              0 ****  ****    0 ROOT
