@<TRIPOS>MOLECULE
molecule
   38    41     1     0     0
SMALL
bcc


@<TRIPOS>ATOM
      1 C4           0.0000     0.0000     0.0000 cp         1 7JG       0.035000
      2 C5           2.1030     0.0000     1.2070 ca         1 7JG      -0.126000
      3 C7           1.4010     0.0000     0.0000 cq         1 7JG      -0.033000
      4 C8          -0.7480    -0.0060    -1.2780 cp         1 7JG      -0.054000
      5 C10          3.7570    -0.9960    -2.7520 ca         1 7JG      -0.168000
      6 C13          2.1400     0.0000    -1.2850 cq         1 7JG      -0.061000
      7 C15          2.6030     1.0040    -3.4160 ca         1 7JG      -0.168000
      8 C17         -1.9540    -0.0030     3.6350 cc         1 7JG       0.498800
      9 C21         -1.4490     1.1300    -1.6830 ca         1 7JG      -0.070500
     10 C22         -2.1450     1.1200    -2.8740 ca         1 7JG      -0.166500
     11 C24         -1.4530    -1.1480    -3.2690 ca         1 7JG      -0.166500
     12 C1           0.0320    -0.0010     2.4380 ca         1 7JG       0.175400
     13 C2          -0.6870    -0.0000     1.2230 ca         1 7JG      -0.182600
     14 C3           1.4340     0.0000     2.4130 ca         1 7JG       0.122100
     15 O6           2.1350     0.0000     3.5780 oh         1 7JG      -0.496100
     16 C9           3.0720    -1.0000    -1.5560 ca         1 7JG      -0.085000
     17 C11          3.5240     0.0040    -3.6840 ca         1 7JG       0.138900
     18 C12          1.9040     1.0010    -2.2270 ca         1 7JG      -0.085000
     19 F14          4.1980     0.0040    -4.8550 f          1 7JG      -0.138900
     20 N16         -0.6550    -0.0020     3.6080 nd         1 7JG      -0.627100
     21 N18         -2.7240    -0.0030     2.5150 ns         1 7JG      -0.477400
     22 C19         -2.1530    -0.0020     1.2880 c          1 7JG       0.702100
     23 O20         -2.8320    -0.0020     0.2760 o          1 7JG      -0.607500
     24 C23         -2.1480    -0.0160    -3.6670 ca         1 7JG       0.138900
     25 C25         -0.7500    -1.1450    -2.0820 ca         1 7JG      -0.070500
     26 F26         -2.8350    -0.0240    -4.8310 f          1 7JG      -0.143900
     27 H1           3.1860     0.0000     1.1960 ha         1 7JG       0.151000
     28 H3           2.4230     1.7830    -4.1480 ha         1 7JG       0.148000
     29 H4          -2.4480    -0.0040     4.5990 h5         1 7JG       0.057800
     30 H5          -1.4470     2.0190    -1.0640 ha         1 7JG       0.137500
     31 H6          -2.6890     2.0020    -3.1900 ha         1 7JG       0.144500
     32 H7          -1.4570    -2.0340    -3.8940 ha         1 7JG       0.144500
     33 H8           2.5370     0.8440     3.7030 ho         1 7JG       0.421000
     34 H9           3.2550    -1.7820    -0.8290 ha         1 7JG       0.143500
     35 H10          1.1850     1.7840    -2.0180 ha         1 7JG       0.143500
     36 H11         -3.7210    -0.0030     2.5990 hn         1 7JG       0.339500
     37 H12         -0.2080    -2.0300    -1.7720 ha         1 7JG       0.137500
     38 H2           4.4800    -1.7750    -2.9640 ha         1 7JG       0.148000
@<TRIPOS>BOND
     1    19    17 1
     2     7    17 ar
     3     7    18 ar
     4    17     5 ar
     5    18     6 1
     6    11    25 ar
     7    11    24 ar
     8    26    24 1
     9    25     4 ar
    10    24    10 ar
    11     5    16 ar
    12     6    16 2
    13     6     3 1
    14     4     1 1
    15     4     9 ar
    16     3     1 1
    17     3     2 2
    18    10     9 ar
    19     1    13 ar
    20     2    14 ar
    21    13    22 1
    22    13    12 ar
    23    14    12 ar
    24    14    15 1
    25    23    22 2
    26    22    21 1
    27    12    20 1
    28    21     8 1
    29    20     8 2
    30     2    27 1
    31     5    38 1
    32     7    28 1
    33     8    29 1
    34     9    30 1
    35    10    31 1
    36    11    32 1
    37    15    33 1
    38    16    34 1
    39    18    35 1
    40    21    36 1
    41    25    37 1
@<TRIPOS>SUBSTRUCTURE
     1 7JG         1 TEMP              0 ****  ****    0 ROOT
