@<TRIPOS>MOLECULE
7JH
   30    32     1     0     0
SMALL
bcc


@<TRIPOS>ATOM
      1 C4           0.0000     0.0000     0.0000 ca         1 7JH       0.009000
      2 C5           1.4000     0.0000     0.0000 ca         1 7JH      -0.118000
      3 C6           2.1020     0.0000     1.1860 ca         1 7JH       0.141100
      4 C8           1.4280    -0.0000     4.7230 cc         1 7JH       0.321800
      5 C10         -0.6950     0.0010     3.7020 c          1 7JH       0.615100
      6 C17          0.6080     1.8450    -2.3400 c3         1 7JH      -0.022400
      7 C1           1.4100     0.0000     2.4050 ca         1 7JH       0.119400
      8 C2          -0.0030     0.0000     2.4040 ca         1 7JH      -0.191600
      9 C3          -0.7020     0.0010     1.2010 ca         1 7JH      -0.027000
     10 N7           2.0650    -0.0000     3.5920 nd         1 7JH      -0.517100
     11 N9           0.0720     0.0000     4.8180 ns         1 7JH      -0.017400
     12 O11         -1.9110     0.0020     3.7720 o          1 7JH      -0.659500
     13 C12         -0.7360     0.0070    -1.2820 cc         1 7JH      -0.066400
     14 S13         -2.0940    -1.0340    -1.7050 ss         1 7JH      -0.291300
     15 C14         -0.4910     0.8140    -2.3370 cd         1 7JH       0.341600
     16 N15         -1.2940     0.6230    -3.3600 nd         1 7JH      -0.559000
     17 C16         -2.1950    -0.2940    -3.2430 cc         1 7JH       0.437700
     18 C18         -3.1990    -0.6540    -4.3080 c3         1 7JH       0.000600
     19 O19          3.4610    -0.0010     1.1740 oh         1 7JH      -0.478100
     20 H1           1.9370    -0.0010    -0.9410 ha         1 7JH       0.126000
     21 H2           2.0070    -0.0010     5.6390 h5         1 7JH       0.004800
     22 H3           1.5580     1.3590    -2.5270 hc         1 7JH       0.016700
     23 H4           0.4170     2.5750    -3.1170 hc         1 7JH       0.016700
     24 H5           0.6400     2.3420    -1.3780 hc         1 7JH       0.016700
     25 H6          -1.7860     0.0010     1.1990 ha         1 7JH       0.137000
     26 H7          -0.3630     0.0000     5.7190 hn         1 7JH       0.183500
     27 H8          -2.6840    -0.8460    -5.2410 hc         1 7JH       0.018367
     28 H9          -3.7420    -1.5420    -4.0060 hc         1 7JH       0.018367
     29 H10         -3.8940     0.1660    -4.4400 hc         1 7JH       0.018367
     30 H11          3.7730    -0.8600     0.9380 ho         1 7JH       0.404000
@<TRIPOS>BOND
     1     1     2 ar  
     2     1     9 ar  
     3     1    13 1   
     4     2     3 ar  
     5     2    20 1   
     6     3     7 ar  
     7     3    19 1   
     8     4    10 2   
     9     4    11 1   
    10     4    21 1   
    11     5     8 1   
    12     5    11 1   
    13     5    12 2   
    14     6    15 1   
    15     6    22 1   
    16     6    23 1   
    17     6    24 1   
    18     7     8 ar  
    19     7    10 1   
    20     8     9 ar  
    21     9    25 1   
    22    11    26 1   
    23    13    14 1   
    24    13    15 2   
    25    14    17 1   
    26    15    16 1   
    27    16    17 2   
    28    17    18 1   
    29    18    27 1   
    30    18    28 1   
    31    18    29 1   
    32    19    30 1   
@<TRIPOS>SUBSTRUCTURE
     1 7JH         1 TEMP              0 ****  ****    0 ROOT
