@<TRIPOS>MOLECULE
molecule
   30    32     1     0     0
SMALL
bcc


@<TRIPOS>ATOM
      1 C4           0.0000     0.0000     0.0000 ca         1 7JH      -0.007000
      2 C5           1.4000     0.0000     0.0000 ca         1 7JH      -0.121000
      3 C6           2.1020     0.0000     1.1860 ca         1 7JH       0.120100
      4 C8           1.4280    -0.0000     4.7230 cc         1 7JH       0.498800
      5 C10         -0.6950     0.0010     3.7020 c          1 7JH       0.705100
      6 C17          0.6080     1.8450    -2.3400 c3         1 7JH      -0.119400
      7 C1           1.4100     0.0000     2.4050 ca         1 7JH       0.173400
      8 C2          -0.0030     0.0000     2.4040 ca         1 7JH      -0.190600
      9 C3          -0.7020     0.0010     1.2010 ca         1 7JH      -0.054000
     10 N7           2.0650    -0.0000     3.5920 nd         1 7JH      -0.628100
     11 N9           0.0720     0.0000     4.8180 ns         1 7JH      -0.477400
     12 O11         -1.9110     0.0020     3.7720 o          1 7JH      -0.617500
     13 C12         -0.7360     0.0070    -1.2820 cd         1 7JH      -0.116400
     14 S13         -2.0940    -1.0340    -1.7050 ss         1 7JH      -0.190300
     15 C14         -0.4910     0.8140    -2.3370 cc         1 7JH       0.394600
     16 N15         -1.2940     0.6230    -3.3600 nc         1 7JH      -0.685000
     17 C16         -2.1950    -0.2940    -3.2430 cd         1 7JH       0.452700
     18 C18         -3.1990    -0.6540    -4.3080 c3         1 7JH      -0.113400
     19 O19          3.4610    -0.0010     1.1740 oh         1 7JH      -0.497100
     20 H1           1.9370    -0.0010    -0.9410 ha         1 7JH       0.152000
     21 H2           2.0070    -0.0010     5.6390 h5         1 7JH       0.057800
     22 H3           1.5580     1.3590    -2.5270 hc         1 7JH       0.054033
     23 H4           0.4170     2.5750    -3.1170 hc         1 7JH       0.054033
     24 H5           0.6400     2.3420    -1.3780 hc         1 7JH       0.054033
     25 H6          -1.7860     0.0010     1.1990 ha         1 7JH       0.164000
     26 H7          -0.3630     0.0000     5.7190 hn         1 7JH       0.339500
     27 H8          -2.6840    -0.8460    -5.2410 hc         1 7JH       0.058700
     28 H9          -3.7420    -1.5420    -4.0060 hc         1 7JH       0.058700
     29 H10         -3.8940     0.1660    -4.4400 hc         1 7JH       0.058700
     30 H11          3.7730    -0.8600     0.9380 ho         1 7JH       0.421000
@<TRIPOS>BOND
     1     6    15 1
     2    16    15 1
     3    16    17 2
     4    15    13 2
     5    18    17 1
     6    17    14 1
     7    13    14 1
     8    13     1 1
     9     1     9 ar
    10     1     2 ar
    11     9     8 ar
    12     2     3 ar
    13     8     5 1
    14     8     7 ar
    15    12     5 2
    16     3     7 ar
    17     3    19 1
    18     5    11 1
    19     7    10 1
    20    11     4 1
    21    10     4 2
    22     2    20 1
    23     4    21 1
    24     6    22 1
    25     6    23 1
    26     6    24 1
    27     9    25 1
    28    11    26 1
    29    18    27 1
    30    18    28 1
    31    18    29 1
    32    19    30 1
@<TRIPOS>SUBSTRUCTURE
     1 7JH         1 TEMP              0 ****  ****    0 ROOT
