@<TRIPOS>MOLECULE
7JJ
   28    30     1     0     0
SMALL
bcc


@<TRIPOS>ATOM
      1 C4           0.0000     0.0000     0.0000 ca         1 7JJ       0.011400
      2 C5           2.0970     0.0000     1.2070 ca         1 7JJ      -0.108000
      3 C7           1.3900     0.0000     0.0000 cp         1 7JJ      -0.030000
      4 C10          3.8320     0.9190    -2.7060 ca         1 7JJ      -0.131000
      5 C13          2.1280    -0.0000    -1.2880 cp         1 7JJ      -0.057000
      6 C15          2.4840    -0.9140    -3.4790 ca         1 7JJ      -0.131000
      7 C17         -1.9630     0.0160     3.6200 cc         1 7JJ       0.325800
      8 C1           0.0270     0.0050     2.4320 ca         1 7JJ       0.130400
      9 C2          -0.6870     0.0050     1.2120 ca         1 7JJ      -0.193600
     10 C3           1.4280    -0.0010     2.4120 ca         1 7JJ       0.139100
     11 O6           2.1270    -0.0010     3.5790 oh         1 7JJ      -0.476100
     12 Cl8         -0.8760     0.0010    -1.4990 cl         1 7JJ       0.047600
     13 C9           3.1480     0.9230    -1.5080 ca         1 7JJ      -0.063000
     14 C11          3.5010     0.0020    -3.6910 ca         1 7JJ       0.109900
     15 C12          1.8030    -0.9240    -2.2790 ca         1 7JJ      -0.063000
     16 F14          4.1740     0.0020    -4.8640 f          1 7JJ      -0.128900
     17 N16         -0.6660     0.0110     3.5980 nd         1 7JJ      -0.517100
     18 N18         -2.7300     0.0170     2.4960 ns         1 7JJ      -0.017400
     19 C19         -2.1560     0.0110     1.2710 c          1 7JJ       0.615100
     20 O20         -2.8290     0.0120     0.2570 o          1 7JJ      -0.652500
     21 H1           3.1800    -0.0000     1.1940 ha         1 7JJ       0.123000
     22 H3           2.2310    -1.6300    -4.2510 ha         1 7JJ       0.120500
     23 H4          -2.4610     0.0210     4.5820 h5         1 7JJ       0.004800
     24 H5           2.5240    -0.8470     3.7070 ho         1 7JJ       0.403000
     25 H6           3.4070     1.6400    -0.7380 ha         1 7JJ       0.116500
     26 H7           1.0080    -1.6410    -2.1130 ha         1 7JJ       0.116500
     27 H8          -3.7280     0.0210     2.5770 hn         1 7JJ       0.184500
     28 H2           4.6260     1.6350    -2.8780 ha         1 7JJ       0.120500
@<TRIPOS>BOND
     1     1     3 ar  
     2     1     9 ar  
     3     1    12 1   
     4     2     3 ar  
     5     2    10 ar  
     6     2    21 1   
     7     3     5 1   
     8     4    13 ar  
     9     4    14 ar  
    10     4    28 1   
    11     5    13 ar  
    12     5    15 ar  
    13     6    14 ar  
    14     6    15 ar  
    15     6    22 1   
    16     7    17 2   
    17     7    18 1   
    18     7    23 1   
    19     8     9 ar  
    20     8    10 ar  
    21     8    17 1   
    22     9    19 1   
    23    10    11 1   
    24    11    24 1   
    25    13    25 1   
    26    14    16 1   
    27    15    26 1   
    28    18    19 1   
    29    18    27 1   
    30    19    20 2   
@<TRIPOS>SUBSTRUCTURE
     1 7JJ         1 TEMP              0 ****  ****    0 ROOT
