@<TRIPOS>MOLECULE
molecule
   28    30     1     0     0
SMALL
bcc


@<TRIPOS>ATOM
      1 C4           0.0000     0.0000     0.0000 ca         1 7JJ       0.087400
      2 C5           2.0970     0.0000     1.2070 ca         1 7JJ      -0.119000
      3 C7           1.3900     0.0000     0.0000 cp         1 7JJ      -0.037000
      4 C10          3.8320     0.9190    -2.7060 ca         1 7JJ      -0.169000
      5 C13          2.1280    -0.0000    -1.2880 cp         1 7JJ      -0.066000
      6 C15          2.4840    -0.9140    -3.4790 ca         1 7JJ      -0.169000
      7 C17         -1.9630     0.0160     3.6200 cc         1 7JJ       0.504800
      8 C1           0.0270     0.0050     2.4320 ca         1 7JJ       0.184400
      9 C2          -0.6870     0.0050     1.2120 ca         1 7JJ      -0.190600
     10 C3           1.4280    -0.0010     2.4120 ca         1 7JJ       0.120100
     11 O6           2.1270    -0.0010     3.5790 oh         1 7JJ      -0.494100
     12 Cl8         -0.8760     0.0010    -1.4990 cl         1 7JJ      -0.052400
     13 C9           3.1480     0.9230    -1.5080 ca         1 7JJ      -0.081500
     14 C11          3.5010     0.0020    -3.6910 ca         1 7JJ       0.140900
     15 C12          1.8030    -0.9240    -2.2790 ca         1 7JJ      -0.081500
     16 F14          4.1740     0.0020    -4.8640 f          1 7JJ      -0.139900
     17 N16         -0.6660     0.0110     3.5980 nd         1 7JJ      -0.628100
     18 N18         -2.7300     0.0170     2.4960 ns         1 7JJ      -0.478400
     19 C19         -2.1560     0.0110     1.2710 c          1 7JJ       0.703100
     20 O20         -2.8290     0.0120     0.2570 o          1 7JJ      -0.597500
     21 H1           3.1800    -0.0000     1.1940 ha         1 7JJ       0.154000
     22 H3           2.2310    -1.6300    -4.2510 ha         1 7JJ       0.148500
     23 H4          -2.4610     0.0210     4.5820 h5         1 7JJ       0.058800
     24 H5           2.5240    -0.8470     3.7070 ho         1 7JJ       0.422000
     25 H6           3.4070     1.6400    -0.7380 ha         1 7JJ       0.145500
     26 H7           1.0080    -1.6410    -2.1130 ha         1 7JJ       0.145500
     27 H8          -3.7280     0.0210     2.5770 hn         1 7JJ       0.341500
     28 H2           4.6260     1.6350    -2.8780 ha         1 7JJ       0.148500
@<TRIPOS>BOND
     1    11    10 1   
     2    10     2 ar  
     3    10     8 ar  
     4     2     3 ar  
     5    16    14 1   
     6     6    14 ar  
     7     6    15 ar  
     8    14     4 ar  
     9    17     8 1   
    10    17     7 2   
    11    15     5 ar  
    12     4    13 ar  
    13    13     5 ar  
    14     8     9 ar  
    15     5     3 1   
    16     3     1 ar  
    17     7    18 1   
    18     9     1 ar  
    19     9    19 1   
    20     1    12 1   
    21    18    19 1   
    22    19    20 2   
    23     2    21 1   
    24     4    28 1   
    25     6    22 1   
    26     7    23 1   
    27    11    24 1   
    28    13    25 1   
    29    15    26 1   
    30    18    27 1   
@<TRIPOS>SUBSTRUCTURE
     1 7JJ         1 TEMP              0 ****  ****    0 ROOT
