@<TRIPOS>MOLECULE
molecule
   47    50     1     0     0
SMALL
bcc


@<TRIPOS>ATOM
      1 C4           0.0000     0.0000     0.0000 c          1 7JK       0.704700
      2 C5           3.4740     0.0000     1.2750 cc         1 7JK      -0.101300
      3 C6           3.9600     0.0000     0.0000 cd         1 7JK       0.003900
      4 C8           4.3700     0.0040     2.4870 c3         1 7JK      -0.033800
      5 C13          7.1990    -0.9010    -1.6850 ca         1 7JK       0.122100
      6 C15          7.6110     0.8850    -0.0850 ca         1 7JK      -0.192600
      7 C22          0.2500    -1.6200    -1.8240 c3         1 7JK       0.101500
      8 C26         -2.0350    -0.8710    -1.0550 c3         1 7JK       0.101500
      9 C1           1.4550    -0.0000     0.1680 cc         1 7JK      -0.102700
     10 C2           2.1090     0.0030     1.3680 cd         1 7JK      -0.086000
     11 S3           2.6260    -0.0040    -1.1440 ss         1 7JK      -0.105800
     12 O7          -0.6930     0.7250     0.6910 o          1 7JK      -0.596100
     13 C9           5.3920     0.0030    -0.3640 ca         1 7JK      -0.018000
     14 N10          9.8660     1.7160     0.1420 ns         1 7JK      -0.476400
     15 C12          5.8670    -0.8900    -1.3340 ca         1 7JK      -0.128000
     16 C14          6.2640     0.8920     0.2580 ca         1 7JK      -0.047000
     17 C16          8.0920    -0.0150    -1.0640 ca         1 7JK       0.176400
     18 N17          9.4090    -0.0010    -1.3800 nc         1 7JK      -0.627100
     19 C18         10.2390     0.8190    -0.8080 cd         1 7JK       0.499800
     20 C19          8.5770     1.7990     0.5440 c          1 7JK       0.705100
     21 O20          8.2290     2.6000     1.3930 o          1 7JK      -0.617500
     22 N21         -0.5720    -0.7990    -0.9230 n          1 7JK      -0.486800
     23 C23         -0.2580    -3.0640    -1.7650 c3         1 7JK       0.145800
     24 N24         -1.7000    -3.0840    -2.0480 n3         1 7JK      -0.732600
     25 C25         -2.4540    -2.3450    -1.0270 c3         1 7JK       0.145800
     26 C27         -2.1930    -4.4620    -2.1720 c3         1 7JK       0.153100
     27 H1           3.8120    -0.3370     3.3500 hc         1 7JK       0.049700
     28 H2           4.7330     1.0090     2.6650 hc         1 7JK       0.049700
     29 H3           5.2110    -0.6580     2.3160 hc         1 7JK       0.049700
     30 H4           1.2850    -1.5860    -1.5050 h1         1 7JK       0.066200
     31 H5           0.1630    -1.2460    -2.8370 h1         1 7JK       0.066200
     32 H6          -2.3370    -0.4260    -1.9950 h1         1 7JK       0.066200
     33 H7          -2.5010    -0.3460    -0.2300 h1         1 7JK       0.066200
     34 H8           1.5880     0.0030     2.3170 ha         1 7JK       0.167000
     35 H9          10.5520     2.3230     0.5480 hn         1 7JK       0.340500
     36 H10          7.3440    -1.5020    -3.4770 ho         1 7JK       0.420000
     37 H11          5.1810    -1.5790    -1.8120 ha         1 7JK       0.148000
     38 H12          5.8750     1.6650     0.9090 ha         1 7JK       0.166000
     39 H13         11.2810     0.7840    -1.1020 h5         1 7JK       0.058800
     40 H14         -0.0790    -3.4690    -0.7760 h1         1 7JK       0.043200
     41 H15          0.2620    -3.6600    -2.5050 h1         1 7JK       0.043200
     42 H17         -3.5140    -2.4230    -1.2360 h1         1 7JK       0.043200
     43 H18         -2.2410    -2.7620    -0.0500 h1         1 7JK       0.043200
     44 H19         -3.2510    -4.4470    -2.4050 h1         1 7JK       0.033700
     45 H20         -2.0370    -4.9870    -1.2370 h1         1 7JK       0.033700
     46 H21         -1.6560    -4.9690    -2.9640 h1         1 7JK       0.033700
     47 O11          7.6490    -1.7720    -2.6280 oh         1 7JK      -0.495100
@<TRIPOS>BOND
     1    12     1 2   
     2     8    25 1   
     3     8    22 1   
     4     1    22 1   
     5     1     9 1   
     6    25    24 1   
     7    22     7 1   
     8     9    11 1   
     9     9    10 2   
    10    11     3 1   
    11    24    26 1   
    12    24    23 1   
    13     7    23 1   
    14    10     2 1   
    15     3     2 2   
    16     3    13 1   
    17     2     4 1   
    18    13    15 ar  
    19    13    16 ar  
    20    15     5 ar  
    21    16     6 ar  
    22     5    47 1   
    23     5    17 ar  
    24     6    17 ar  
    25     6    20 1   
    26    17    18 1   
    27    21    20 2   
    28    20    14 1   
    29    18    19 2   
    30    14    19 1   
    31     4    27 1   
    32     4    28 1   
    33     4    29 1   
    34     7    30 1   
    35     7    31 1   
    36     8    32 1   
    37     8    33 1   
    38    10    34 1   
    39    14    35 1   
    40    47    36 1   
    41    15    37 1   
    42    16    38 1   
    43    19    39 1   
    44    23    40 1   
    45    23    41 1   
    46    25    42 1   
    47    25    43 1   
    48    26    44 1   
    49    26    45 1   
    50    26    46 1   
@<TRIPOS>SUBSTRUCTURE
     1 7JK         1 TEMP              0 ****  ****    0 ROOT
