@<TRIPOS>MOLECULE
7JK
   47    50     1     0     0
SMALL
bcc


@<TRIPOS>ATOM
      1 C4           0.0000     0.0000     0.0000 c          1 7JK       0.643700
      2 C5           3.4740     0.0000     1.2750 cc         1 7JK      -0.108300
      3 C6           3.9600     0.0000     0.0000 cd         1 7JK       0.060900
      4 C8           4.3700     0.0040     2.4870 c3         1 7JK       0.071200
      5 C13          7.1990    -0.9010    -1.6850 ca         1 7JK       0.143100
      6 C15          7.6110     0.8850    -0.0850 ca         1 7JK      -0.192600
      7 C22          0.2500    -1.6200    -1.8240 c3         1 7JK       0.027000
      8 C26         -2.0350    -0.8710    -1.0550 c3         1 7JK       0.027000
      9 C1           1.4550    -0.0000     0.1680 cd         1 7JK      -0.066700
     10 C2           2.1090     0.0030     1.3680 cc         1 7JK      -0.046000
     11 S3           2.6260    -0.0040    -1.1440 ss         1 7JK      -0.229800
     12 O7          -0.6930     0.7250     0.6910 o          1 7JK      -0.639100
     13 C9           5.3920     0.0030    -0.3640 ca         1 7JK      -0.003000
     14 N10          9.8660     1.7160     0.1420 ns         1 7JK      -0.015400
     15 C12          5.8670    -0.8900    -1.3340 ca         1 7JK      -0.117000
     16 C14          6.2640     0.8920     0.2580 ca         1 7JK      -0.027000
     17 C16          8.0920    -0.0150    -1.0640 ca         1 7JK       0.122400
     18 N17          9.4090    -0.0010    -1.3800 nc         1 7JK      -0.516100
     19 C18         10.2390     0.8190    -0.8080 cd         1 7JK       0.322800
     20 C19          8.5770     1.7990     0.5440 c          1 7JK       0.614100
     21 O20          8.2290     2.6000     1.3930 o          1 7JK      -0.660500
     22 N21         -0.5720    -0.7990    -0.9230 n          1 7JK      -0.141800
     23 C23         -0.2580    -3.0640    -1.7650 c3         1 7JK       0.139800
     24 N24         -1.7000    -3.0840    -2.0480 n3         1 7JK      -0.545600
     25 C25         -2.4540    -2.3450    -1.0270 c3         1 7JK       0.139800
     26 C27         -2.1930    -4.4620    -2.1720 c3         1 7JK       0.189100
     27 H1           3.8120    -0.3370     3.3500 hc         1 7JK       0.015700
     28 H2           4.7330     1.0090     2.6650 hc         1 7JK       0.015700
     29 H3           5.2110    -0.6580     2.3160 hc         1 7JK       0.015700
     30 H4           1.2850    -1.5860    -1.5050 h1         1 7JK       0.045200
     31 H5           0.1630    -1.2460    -2.8370 h1         1 7JK       0.045200
     32 H6          -2.3370    -0.4260    -1.9950 h1         1 7JK       0.045200
     33 H7          -2.5010    -0.3460    -0.2300 h1         1 7JK       0.045200
     34 H8           1.5880     0.0030     2.3170 ha         1 7JK       0.136000
     35 H9          10.5520     2.3230     0.5480 hn         1 7JK       0.183500
     36 H10          7.3440    -1.5020    -3.4770 ho         1 7JK       0.403000
     37 H11          5.1810    -1.5790    -1.8120 ha         1 7JK       0.123000
     38 H12          5.8750     1.6650     0.9090 ha         1 7JK       0.138000
     39 H13         11.2810     0.7840    -1.1020 h5         1 7JK       0.005800
     40 H14         -0.0790    -3.4690    -0.7760 h1         1 7JK       0.015700
     41 H15          0.2620    -3.6600    -2.5050 h1         1 7JK       0.015700
     42 H17         -3.5140    -2.4230    -1.2360 h1         1 7JK       0.015700
     43 H18         -2.2410    -2.7620    -0.0500 h1         1 7JK       0.015700
     44 H19         -3.2510    -4.4470    -2.4050 h1         1 7JK       0.001367
     45 H20         -2.0370    -4.9870    -1.2370 h1         1 7JK       0.001367
     46 H21         -1.6560    -4.9690    -2.9640 h1         1 7JK       0.001367
     47 O11          7.6490    -1.7720    -2.6280 oh         1 7JK      -0.476100
@<TRIPOS>BOND
     1     1     9 1   
     2     1    12 2   
     3     1    22 1   
     4     2     3 2   
     5     2     4 1   
     6     2    10 1   
     7     3    11 1   
     8     3    13 1   
     9     4    27 1   
    10     4    28 1   
    11     4    29 1   
    12     5    15 ar  
    13     5    17 ar  
    14     5    47 1   
    15     6    16 ar  
    16     6    17 ar  
    17     6    20 1   
    18     7    22 1   
    19     7    23 1   
    20     7    30 1   
    21     7    31 1   
    22     8    22 1   
    23     8    25 1   
    24     8    32 1   
    25     8    33 1   
    26     9    10 2   
    27     9    11 1   
    28    10    34 1   
    29    13    15 ar  
    30    13    16 ar  
    31    14    19 1   
    32    14    20 1   
    33    14    35 1   
    34    15    37 1   
    35    16    38 1   
    36    17    18 1   
    37    18    19 2   
    38    19    39 1   
    39    20    21 2   
    40    23    24 1   
    41    23    40 1   
    42    23    41 1   
    43    24    25 1   
    44    24    26 1   
    45    25    42 1   
    46    25    43 1   
    47    26    44 1   
    48    26    45 1   
    49    26    46 1   
    50    36    47 1   
@<TRIPOS>SUBSTRUCTURE
     1 7JK         1 TEMP              0 ****  ****    0 ROOT
