@<TRIPOS>MOLECULE
molecule
   18    19     1     0     0
SMALL
bcc


@<TRIPOS>ATOM
      1 C4           0.0000     0.0000     0.0000 ca         1 7JL       0.122100
      2 C7           2.0930     0.0020    -1.2320 ca         1 7JL      -0.193600
      3 C8           1.4020     0.0000     0.0000 ca         1 7JL       0.183400
      4 C10          3.4120     0.0000     1.1540 cc         1 7JL       0.504800
      5 C1           1.3830     0.0020    -2.4310 ca         1 7JL      -0.038000
      6 C2           0.0050     0.0020    -2.4080 ca         1 7JL      -0.029900
      7 C3          -0.6820     0.0000    -1.2010 ca         1 7JL      -0.113000
      8 Br5         -0.9600     0.0040    -4.0350 br         1 7JL      -0.079100
      9 O6          -0.6830    -0.0060     1.1750 oh         1 7JL      -0.493100
     10 N9           2.1140     0.0000     1.1540 nd         1 7JL      -0.629100
     11 N11          4.1590     0.0010     0.0170 ns         1 7JL      -0.477400
     12 C12          3.5630     0.0020    -1.1980 c          1 7JL       0.707100
     13 O13          4.2180     0.0030    -2.2240 o          1 7JL      -0.613500
     14 H1           3.9260    -0.0000     2.1080 h5         1 7JL       0.059800
     15 H2           1.9120     0.0030    -3.3770 ha         1 7JL       0.170000
     16 H3          -1.7660     0.0000    -1.2010 ha         1 7JL       0.157000
     17 H4          -1.0750     0.8400     1.3140 ho         1 7JL       0.422000
     18 H5           5.1570     0.0010     0.0800 hn         1 7JL       0.340500
@<TRIPOS>BOND
     1     4    11 1
     2     4    10 2
     3    11    12 1
     4    10     3 1
     5    12    13 2
     6    12     2 1
     7     3     2 ar
     8     3     1 ar
     9     2     5 ar
    10     9     1 1
    11     1     7 ar
    12     5     6 ar
    13     7     6 ar
    14     6     8 1
    15     4    14 1
    16     5    15 1
    17     7    16 1
    18     9    17 1
    19    11    18 1
@<TRIPOS>SUBSTRUCTURE
     1 7JL         1 TEMP              0 ****  ****    0 ROOT
