@<TRIPOS>MOLECULE
7JL
   18    19     1     0     0
SMALL
bcc


@<TRIPOS>ATOM
      1 C4           0.0000     0.0000     0.0000 ca         1 7JL       0.144100
      2 C7           2.0930     0.0020    -1.2320 ca         1 7JL      -0.191600
      3 C8           1.4020     0.0000     0.0000 ca         1 7JL       0.125400
      4 C10          3.4120     0.0000     1.1540 cc         1 7JL       0.325800
      5 C1           1.3830     0.0020    -2.4310 ca         1 7JL      -0.019000
      6 C2           0.0050     0.0020    -2.4080 ca         1 7JL       0.028100
      7 C3          -0.6820     0.0000    -1.2010 ca         1 7JL      -0.108000
      8 Br5         -0.9600     0.0040    -4.0350 br         1 7JL      -0.115100
      9 O6          -0.6830    -0.0060     1.1750 oh         1 7JL      -0.474100
     10 N9           2.1140     0.0000     1.1540 nd         1 7JL      -0.517100
     11 N11          4.1590     0.0010     0.0170 ns         1 7JL      -0.017400
     12 C12          3.5630     0.0020    -1.1980 c          1 7JL       0.616100
     13 O13          4.2180     0.0030    -2.2240 o          1 7JL      -0.656500
     14 H1           3.9260    -0.0000     2.1080 h5         1 7JL       0.005800
     15 H2           1.9120     0.0030    -3.3770 ha         1 7JL       0.140000
     16 H3          -1.7660     0.0000    -1.2010 ha         1 7JL       0.127000
     17 H4          -1.0750     0.8400     1.3140 ho         1 7JL       0.404000
     18 H5           5.1570     0.0010     0.0800 hn         1 7JL       0.183500
@<TRIPOS>BOND
     1     1     3 ar  
     2     1     7 ar  
     3     1     9 1   
     4     2     3 ar  
     5     2     5 ar  
     6     2    12 1   
     7     3    10 1   
     8     4    10 2   
     9     4    11 1   
    10     4    14 1   
    11     5     6 ar  
    12     5    15 1   
    13     6     7 ar  
    14     6     8 1   
    15     7    16 1   
    16     9    17 1   
    17    11    12 1   
    18    11    18 1   
    19    12    13 2   
@<TRIPOS>SUBSTRUCTURE
     1 7JL         1 TEMP              0 ****  ****    0 ROOT
