@<TRIPOS>MOLECULE
7JM
   30    32     1     0     0
SMALL
bcc


@<TRIPOS>ATOM
      1 C4           0.0000     0.0000     0.0000 ca         1 7JM       0.142100
      2 C6           2.0990     0.0010    -1.2290 ca         1 7JM      -0.192600
      3 C7           1.4030     0.0000     0.0000 ca         1 7JM       0.118400
      4 C13         -0.7480    -0.0080    -3.6900 cp         1 7JM      -0.161300
      5 C15         -2.3730     0.9420    -5.1600 ca         1 7JM      -0.230300
      6 C1           1.3960     0.0020    -2.4310 ca         1 7JM      -0.033000
      7 C2           0.0070    -0.0100    -2.4130 cp         1 7JM      -0.025000
      8 C3          -0.6830    -0.0050    -1.1960 ca         1 7JM      -0.118000
      9 O5          -0.6820    -0.0020     1.1750 oh         1 7JM      -0.477100
     10 N8           2.1110     0.0000     1.1560 nc         1 7JM      -0.515100
     11 C9           3.4100     0.0010     1.1600 cd         1 7JM       0.320800
     12 N10          4.1610     0.0020     0.0270 ns         1 7JM      -0.017400
     13 C11          3.5690     0.0020    -1.1910 c          1 7JM       0.615100
     14 O12          4.2290     0.0030    -2.2140 o          1 7JM      -0.660500
     15 C14         -1.6960     0.9850    -3.9540 ca         1 7JM      -0.054000
     16 C16         -2.0920    -0.0720    -6.0580 ca         1 7JM       0.409200
     17 N17         -1.1830    -0.9890    -5.7860 nb         1 7JM      -0.576000
     18 C18         -0.5180    -0.9920    -4.6500 ca         1 7JM       0.393600
     19 C19          0.5010    -2.0710    -4.3840 c3         1 7JM      -0.054400
     20 H1          -3.1180     1.6920    -5.3970 ha         1 7JM       0.114000
     21 H2           1.9240     0.1400    -3.3670 ha         1 7JM       0.136000
     22 H3          -1.7670    -0.0060    -1.1950 ha         1 7JM       0.120000
     23 H4          -1.0790    -0.8470     1.3070 ho         1 7JM       0.403000
     24 H5           3.9210     0.0000     2.1150 h5         1 7JM       0.004800
     25 H6           5.1600     0.0020     0.0930 hn         1 7JM       0.183500
     26 H7          -1.8960     1.7680    -3.2320 ha         1 7JM       0.114000
     27 H8          -2.6190    -0.1070    -7.0050 h4         1 7JM      -0.020900
     28 H9           0.3310    -2.9020    -5.0580 hc         1 7JM       0.019700
     29 H10          1.4960    -1.6740    -4.5420 hc         1 7JM       0.019700
     30 H11          0.4070    -2.4120    -3.3600 hc         1 7JM       0.019700
@<TRIPOS>BOND
     1     1     3 ar  
     2     1     8 ar  
     3     1     9 1   
     4     2     3 ar  
     5     2     6 ar  
     6     2    13 1   
     7     3    10 1   
     8     4     7 1   
     9     4    15 ar  
    10     4    18 ar  
    11     5    15 ar  
    12     5    16 ar  
    13     5    20 1   
    14     6     7 ar  
    15     6    21 1   
    16     7     8 ar  
    17     8    22 1   
    18     9    23 1   
    19    10    11 2   
    20    11    12 1   
    21    11    24 1   
    22    12    13 1   
    23    12    25 1   
    24    13    14 2   
    25    15    26 1   
    26    16    17 ar  
    27    16    27 1   
    28    17    18 ar  
    29    18    19 1   
    30    19    28 1   
    31    19    29 1   
    32    19    30 1   
@<TRIPOS>SUBSTRUCTURE
     1 7JM         1 TEMP              0 ****  ****    0 ROOT
