@<TRIPOS>MOLECULE
molecule
   66    71     1     0     0
SMALL
bcc


@<TRIPOS>ATOM
      1 N1           0.0000     0.0000     0.0000 na         1 7JN      -0.252000
      2 C4           0.7600     0.0000     2.0830 ca         1 7JN      -0.210200
      3 C6           3.6310    -4.7640    -6.9490 ca         1 7JN      -0.153600
      4 C7           1.3630     0.0000     0.0000 cc         1 7JN       0.428700
      5 C10         -0.8770    -0.0520    -3.4760 c3         1 7JN       0.173100
      6 C13          4.8590    -5.1220    -7.5200 ca         1 7JN       0.158100
      7 C15          3.3370    -3.3490    -6.6530 c          1 7JN       0.672700
      8 C20          2.9640    -7.0800    -6.9530 cp         1 7JN      -0.040000
      9 C21          5.1290    -6.4580    -7.8040 ca         1 7JN       0.058100
     10 C26          1.8610    -1.6000    -5.8150 c3         1 7JN       0.150000
     11 C35          0.0850   -10.0890    -6.0850 ca         1 7JN       0.137900
     12 C37         -0.1890    -8.7640    -5.7880 ca         1 7JN      -0.163000
     13 C30          0.7410    -7.7840    -6.0700 ca         1 7JN      -0.095000
     14 C36          1.2980   -10.4370    -6.6590 ca         1 7JN      -0.163000
     15 C31          2.2350    -9.4640    -6.9390 ca         1 7JN      -0.095000
     16 C27          1.9590    -8.1290    -6.6530 cp         1 7JN      -0.051000
     17 C23          4.1890    -7.4310    -7.5220 ca         1 7JN      -0.121000
     18 O33          6.3220    -6.8060    -8.3580 oh         1 7JN      -0.515100
     19 O32          5.7830    -4.1680    -7.7980 oh         1 7JN      -0.483100
     20 C14          2.6840    -5.7500    -6.6670 ca         1 7JN      -0.095000
     21 O28          4.1630    -2.4920    -6.9000 o          1 7JN      -0.582100
     22 N24          2.1530    -3.0060    -6.1080 ns         1 7JN      -0.586900
     23 C12          0.4610    -1.4860    -5.2070 cx         1 7JN      -0.140700
     24 C11         -0.5890    -0.7020    -5.9940 cx         1 7JN      -0.123400
     25 C9           0.0130    -0.1070    -4.7190 cx         1 7JN      -0.126700
     26 O8          -0.1630    -0.5400    -2.3210 os         1 7JN      -0.413600
     27 C19         -1.2300     1.4110    -3.1320 c3         1 7JN      -0.139400
     28 C18         -1.2230     1.4460    -1.5880 c3         1 7JN       0.102100
     29 O34         -2.5140     1.8030    -1.0880 oh         1 7JN      -0.585800
     30 C3          -0.8670    -0.0000    -1.1820 c3         1 7JN       0.259800
     31 N5           1.8070     0.0000     1.2240 nd         1 7JN      -0.588100
     32 C2          -0.4120    -0.0070     1.3080 ca         1 7JN       0.475800
     33 N17         -1.5920    -0.0070     1.9220 nb         1 7JN      -0.790000
     34 C25         -1.6650    -0.0040     3.2350 ca         1 7JN       0.739900
     35 N22         -0.5920     0.0030     4.0050 nb         1 7JN      -0.834000
     36 C16          0.6300     0.0040     3.4830 ca         1 7JN       0.785200
     37 N29          1.7490     0.0100     4.2980 nu         1 7JN      -0.894900
     38 C39          1.5940     0.0130     5.7540 c3         1 7JN       0.228100
     39 H1           1.9850    -0.0000    -0.8870 h5         1 7JN       0.089800
     40 H2          -1.7820    -0.6290    -3.6280 h1         1 7JN       0.059700
     41 H3           1.9050    -1.0230    -6.7310 h1         1 7JN       0.059200
     42 H4           2.5920    -1.2190    -5.1120 h1         1 7JN       0.059200
     43 H6           0.5250    -6.7480    -5.8380 ha         1 7JN       0.137500
     44 H7           1.5130   -11.4750    -6.8810 ha         1 7JN       0.148500
     45 H8           3.1820    -9.7380    -7.3880 ha         1 7JN       0.137500
     46 H9           4.4030    -8.4690    -7.7440 ha         1 7JN       0.147000
     47 H10          6.8750    -7.1890    -7.6970 ho         1 7JN       0.428000
     48 H11          5.8600    -4.0670    -8.7320 ho         1 7JN       0.434000
     49 H12          1.7330    -5.4780    -6.2250 ha         1 7JN       0.134000
     50 H13          1.4800    -3.7130    -5.8880 hn         1 7JN       0.312500
     51 H14          0.0700    -2.3190    -4.6340 hc         1 7JN       0.091700
     52 H15         -1.6060    -1.0640    -5.9060 hc         1 7JN       0.081200
     53 H16         -0.2450    -0.2620    -6.9220 hc         1 7JN       0.081200
     54 H17          0.7310     0.6870    -4.8850 hc         1 7JN       0.093700
     55 H18         -0.4800     2.0840    -3.5290 hc         1 7JN       0.069700
     56 H19         -2.2140     1.6620    -3.5110 hc         1 7JN       0.069700
     57 H20         -0.4670     2.1350    -1.2300 h1         1 7JN       0.059700
     58 H21         -2.5450     2.7330    -0.9330 ho         1 7JN       0.412000
     59 H22         -1.7690    -0.5700    -0.9940 h2         1 7JN       0.105700
     60 H23         -2.6420    -0.0040     3.7030 h5         1 7JN       0.060100
     61 H24          2.6640     0.0120     3.8920 hn         1 7JN       0.463800
     62 H25          1.0460     0.8970     6.0570 h1         1 7JN       0.041367
     63 H26          2.5710     0.0160     6.2210 h1         1 7JN       0.041367
     64 H27          1.0500    -0.8720     6.0610 h1         1 7JN       0.041367
     65 H5          -1.1360    -8.4960    -5.3350 ha         1 7JN       0.148500
     66 F38         -0.8280   -11.0440    -5.8080 f          1 7JN      -0.137900
@<TRIPOS>BOND
     1    38    37 1   
     2    37    36 1   
     3    36    35 ar  
     4    36     2 ar  
     5    35    34 ar  
     6     2    31 1   
     7     2    32 ar  
     8    34    33 ar  
     9    31     4 2   
    10    32    33 ar  
    11    32     1 1   
    12     4     1 1   
    13     1    30 1   
    14    19     6 1   
    15    10    22 1   
    16    10    23 1   
    17    22     7 1   
    18    18     9 1   
    19     6     9 ar  
    20     6     3 ar  
    21    30    26 1   
    22    30    28 1   
    23     9    17 ar  
    24     7     3 1   
    25     7    21 2   
    26    26     5 1   
    27     3    20 ar  
    28    25    23 1   
    29    25     5 1   
    30    25    24 1   
    31    23    24 1   
    32    17     8 ar  
    33    20     8 ar  
    34     5    27 1   
    35    28    27 1   
    36    28    29 1   
    37     8    16 1   
    38    15    16 ar  
    39    15    14 ar  
    40    16    13 ar  
    41    14    11 ar  
    42    13    12 ar  
    43    11    12 ar  
    44    11    66 1   
    45     4    39 1   
    46     5    40 1   
    47    10    41 1   
    48    10    42 1   
    49    12    65 1   
    50    13    43 1   
    51    14    44 1   
    52    15    45 1   
    53    17    46 1   
    54    18    47 1   
    55    19    48 1   
    56    20    49 1   
    57    22    50 1   
    58    23    51 1   
    59    24    52 1   
    60    24    53 1   
    61    25    54 1   
    62    27    55 1   
    63    27    56 1   
    64    28    57 1   
    65    29    58 1   
    66    30    59 1   
    67    34    60 1   
    68    37    61 1   
    69    38    62 1   
    70    38    63 1   
    71    38    64 1   
@<TRIPOS>SUBSTRUCTURE
     1 7JN         1 TEMP              0 ****  ****    0 ROOT
