@<TRIPOS>MOLECULE
7JN
   66    71     1     0     0
SMALL
bcc


@<TRIPOS>ATOM
      1 N1           0.0000     0.0000     0.0000 na         1 7JN       0.207000
      2 C4           0.7600     0.0000     2.0830 ca         1 7JN      -0.242200
      3 C6           3.6310    -4.7640    -6.9490 ca         1 7JN      -0.169600
      4 C7           1.3630     0.0000     0.0000 cc         1 7JN       0.249700
      5 C10         -0.8770    -0.0520    -3.4760 c3         1 7JN       0.225100
      6 C13          4.8590    -5.1220    -7.5200 ca         1 7JN       0.175100
      7 C15          3.3370    -3.3490    -6.6530 c          1 7JN       0.596700
      8 C20          2.9640    -7.0800    -6.9530 cp         1 7JN      -0.038000
      9 C21          5.1290    -6.4580    -7.8040 ca         1 7JN       0.065100
     10 C26          1.8610    -1.6000    -5.8150 c3         1 7JN       0.095000
     11 C35          0.0850   -10.0890    -6.0850 ca         1 7JN       0.105900
     12 C37         -0.1890    -8.7640    -5.7880 ca         1 7JN      -0.126500
     13 C30          0.7410    -7.7840    -6.0700 ca         1 7JN      -0.075500
     14 C36          1.2980   -10.4370    -6.6590 ca         1 7JN      -0.126500
     15 C31          2.2350    -9.4640    -6.9390 ca         1 7JN      -0.075500
     16 C27          1.9590    -8.1290    -6.6530 cp         1 7JN      -0.041000
     17 C23          4.1890    -7.4310    -7.5220 ca         1 7JN      -0.107000
     18 O33          6.3220    -6.8060    -8.3580 oh         1 7JN      -0.494100
     19 O32          5.7830    -4.1680    -7.7980 oh         1 7JN      -0.460100
     20 C14          2.6840    -5.7500    -6.6670 ca         1 7JN      -0.082000
     21 O28          4.1630    -2.4920    -6.9000 o          1 7JN      -0.626100
     22 N24          2.1530    -3.0060    -6.1080 ns         1 7JN      -0.206900
     23 C12          0.4610    -1.4860    -5.2070 cx         1 7JN      -0.121700
     24 C11         -0.5890    -0.7020    -5.9940 cx         1 7JN      -0.065400
     25 C9           0.0130    -0.1070    -4.7190 cx         1 7JN      -0.112700
     26 O8          -0.1630    -0.5400    -2.3210 os         1 7JN      -0.399600
     27 C19         -1.2300     1.4110    -3.1320 c3         1 7JN      -0.092400
     28 C18         -1.2230     1.4460    -1.5880 c3         1 7JN       0.146100
     29 O34         -2.5140     1.8030    -1.0880 oh         1 7JN      -0.564800
     30 C3          -0.8670    -0.0000    -1.1820 c3         1 7JN       0.152800
     31 N5           1.8070     0.0000     1.2240 nd         1 7JN      -0.497100
     32 C2          -0.4120    -0.0070     1.3080 ca         1 7JN       0.270800
     33 N17         -1.5920    -0.0070     1.9220 nb         1 7JN      -0.677000
     34 C25         -1.6650    -0.0040     3.2350 ca         1 7JN       0.689900
     35 N22         -0.5920     0.0030     4.0050 nb         1 7JN      -0.744000
     36 C16          0.6300     0.0040     3.4830 ca         1 7JN       0.602200
     37 N29          1.7490     0.0100     4.2980 nu         1 7JN      -0.469900
     38 C39          1.5940     0.0130     5.7540 c3         1 7JN       0.194100
     39 H1           1.9850    -0.0000    -0.8870 h5         1 7JN       0.041800
     40 H2          -1.7820    -0.6290    -3.6280 h1         1 7JN       0.026700
     41 H3           1.9050    -1.0230    -6.7310 h1         1 7JN       0.030200
     42 H4           2.5920    -1.2190    -5.1120 h1         1 7JN       0.030200
     43 H6           0.5250    -6.7480    -5.8380 ha         1 7JN       0.112500
     44 H7           1.5130   -11.4750    -6.8810 ha         1 7JN       0.119500
     45 H8           3.1820    -9.7380    -7.3880 ha         1 7JN       0.112500
     46 H9           4.4030    -8.4690    -7.7440 ha         1 7JN       0.122000
     47 H10          6.8750    -7.1890    -7.6970 ho         1 7JN       0.410000
     48 H11          5.8600    -4.0670    -8.7320 ho         1 7JN       0.412000
     49 H12          1.7330    -5.4780    -6.2250 ha         1 7JN       0.114000
     50 H13          1.4800    -3.7130    -5.8880 hn         1 7JN       0.178500
     51 H14          0.0700    -2.3190    -4.6340 hc         1 7JN       0.067700
     52 H15         -1.6060    -1.0640    -5.9060 hc         1 7JN       0.051200
     53 H16         -0.2450    -0.2620    -6.9220 hc         1 7JN       0.051200
     54 H17          0.7310     0.6870    -4.8850 hc         1 7JN       0.071700
     55 H18         -0.4800     2.0840    -3.5290 hc         1 7JN       0.039700
     56 H19         -2.2140     1.6620    -3.5110 hc         1 7JN       0.039700
     57 H20         -0.4670     2.1350    -1.2300 h1         1 7JN       0.021700
     58 H21         -2.5450     2.7330    -0.9330 ho         1 7JN       0.398000
     59 H22         -1.7690    -0.5700    -0.9940 h2         1 7JN       0.065700
     60 H23         -2.6420    -0.0040     3.7030 h5         1 7JN      -0.004900
     61 H24          2.6640     0.0120     3.8920 hn         1 7JN       0.305800
     62 H25          1.0460     0.8970     6.0570 h1         1 7JN       0.010700
     63 H26          2.5710     0.0160     6.2210 h1         1 7JN       0.010700
     64 H27          1.0500    -0.8720     6.0610 h1         1 7JN       0.010700
     65 H5          -1.1360    -8.4960    -5.3350 ha         1 7JN       0.119500
     66 F38         -0.8280   -11.0440    -5.8080 f          1 7JN      -0.126900
@<TRIPOS>BOND
     1     1     4 1   
     2     1    30 1   
     3     1    32 1   
     4     2    31 1   
     5     2    32 ar  
     6     2    36 ar  
     7     3     6 ar  
     8     3     7 1   
     9     3    20 ar  
    10     4    31 2   
    11     4    39 1   
    12     5    25 1   
    13     5    26 1   
    14     5    27 1   
    15     5    40 1   
    16     6     9 ar  
    17     6    19 1   
    18     7    21 2   
    19     7    22 1   
    20     8    16 1   
    21     8    17 ar  
    22     8    20 ar  
    23     9    17 ar  
    24     9    18 1   
    25    10    22 1   
    26    10    23 1   
    27    10    41 1   
    28    10    42 1   
    29    11    12 ar  
    30    11    14 ar  
    31    11    66 1   
    32    12    13 ar  
    33    12    65 1   
    34    13    16 ar  
    35    13    43 1   
    36    14    15 ar  
    37    14    44 1   
    38    15    16 ar  
    39    15    45 1   
    40    17    46 1   
    41    18    47 1   
    42    19    48 1   
    43    20    49 1   
    44    22    50 1   
    45    23    24 1   
    46    23    25 1   
    47    23    51 1   
    48    24    25 1   
    49    24    52 1   
    50    24    53 1   
    51    25    54 1   
    52    26    30 1   
    53    27    28 1   
    54    27    55 1   
    55    27    56 1   
    56    28    29 1   
    57    28    30 1   
    58    28    57 1   
    59    29    58 1   
    60    30    59 1   
    61    32    33 ar  
    62    33    34 ar  
    63    34    35 ar  
    64    34    60 1   
    65    35    36 ar  
    66    36    37 1   
    67    37    38 1   
    68    37    61 1   
    69    38    62 1   
    70    38    63 1   
    71    38    64 1   
@<TRIPOS>SUBSTRUCTURE
     1 7JN         1 TEMP              0 ****  ****    0 ROOT
