@<TRIPOS>MOLECULE
molecule
   63    67     1     0     0
SMALL
bcc


@<TRIPOS>ATOM
      1 C4           0.0000     0.0000     0.0000 ca         1 7JO      -0.091500
      2 C5           1.3940     0.0000     0.0000 cp         1 7JO      -0.047000
      3 C6           2.0870     0.0000     1.2090 ca         1 7JO      -0.091500
      4 C7           2.1380    -0.0010    -1.2840 cp         1 7JO      -0.044000
      5 C8           1.4410     0.0060    -2.4940 ca         1 7JO      -0.118000
      6 C10          3.5210     0.0000    -3.6990 ca         1 7JO       0.164100
      7 C20          4.2130     4.7390     1.5030 ca         1 7JO       0.481800
      8 C21          6.2820     3.5230     0.6980 c3         1 7JO       0.258800
      9 C22          4.2150     2.5490     1.7690 cc         1 7JO       0.416700
     10 C26          7.3730     3.7010     1.7770 c3         1 7JO       0.087100
     11 C28          2.0540     5.3010     2.4150 ca         1 7JO       0.788200
     12 C1           1.3900    -0.0010     2.4010 ca         1 7JO      -0.155500
     13 C2           0.0040    -0.0010     2.3960 ca         1 7JO       0.131900
     14 C3          -0.6880     0.0050     1.1960 ca         1 7JO      -0.155500
     15 C9           2.1280     0.0060    -3.6930 ca         1 7JO       0.042100
     16 C11          4.2260    -0.0000    -2.4890 ca         1 7JO      -0.152600
     17 C12          3.5270    -0.0010    -1.2800 ca         1 7JO      -0.087000
     18 F13         -0.6720    -0.0010     3.5640 f          1 7JO      -0.141900
     19 C14          5.7010    -0.0000    -2.4910 c          1 7JO       0.677700
     20 N15          6.3760    -0.0000    -1.3250 ns         1 7JO      -0.576900
     21 O16          6.3070     0.0000    -3.5440 o          1 7JO      -0.584100
     22 O17          4.1950    -0.0000    -4.8770 oh         1 7JO      -0.474100
     23 O18          1.4440     0.0100    -4.8680 oh         1 7JO      -0.518100
     24 N19          4.9500     3.5990     1.3030 na         1 7JO      -0.252000
     25 C23          3.0120     4.3220     2.1010 ca         1 7JO      -0.210200
     26 N24          4.3990     6.0310     1.2600 nb         1 7JO      -0.784000
     27 O25          6.5130     2.2050     0.1530 os         1 7JO      -0.417600
     28 N27          3.0780     2.9760     2.2350 nd         1 7JO      -0.582100
     29 C29          3.4740     6.9130     1.5720 ca         1 7JO       0.742900
     30 C30          7.9480     2.0830     0.0480 c3         1 7JO       0.130100
     31 C31          8.4950     2.7320     1.3400 c3         1 7JO       0.085100
     32 O32          7.8500     5.0480     1.7910 oh         1 7JO      -0.558800
     33 N33          2.3290     6.5700     2.1350 nb         1 7JO      -0.833000
     34 N34          0.8510     4.9520     3.0060 nv         1 7JO      -0.987500
     35 C35          8.3530     0.6090    -0.0210 c3         1 7JO      -0.090400
     36 O36          9.7000     3.4490     1.0690 oh         1 7JO      -0.569800
     37 C37          7.8420    -0.0000    -1.3270 c3         1 7JO       0.120700
     38 C38          8.3520    -1.4370    -1.4540 c3         1 7JO      -0.111100
     39 H1          -0.5420     0.0020    -0.9380 ha         1 7JO       0.132500
     40 H2           3.1700    -0.0000     1.2130 ha         1 7JO       0.132500
     41 H3           0.3580     0.0100    -2.4930 ha         1 7JO       0.145000
     42 H4           6.3950     4.2740    -0.0760 h2         1 7JO       0.117700
     43 H5           4.5330     1.5140     1.7560 h5         1 7JO       0.075800
     44 H6           6.9890     3.4180     2.7500 h1         1 7JO       0.053700
     45 H7           1.9270    -0.0030     3.3410 ha         1 7JO       0.146000
     46 H8          -1.7710     0.0050     1.1960 ha         1 7JO       0.146000
     47 H9           4.0670    -0.0010    -0.3410 ha         1 7JO       0.133000
     48 H10          5.8780    -0.0610    -0.4590 hn         1 7JO       0.313500
     49 H11          3.9170    -0.7350    -5.3980 ho         1 7JO       0.432000
     50 H12          1.0610     0.8600    -5.0050 ho         1 7JO       0.428000
     51 H13          3.6610     7.9600     1.3650 h5         1 7JO       0.063100
     52 H14          8.3070     2.6200    -0.8210 h1         1 7JO       0.088700
     53 H15          8.6580     1.9770     2.1010 h1         1 7JO       0.046700
     54 H16          8.1070     5.2810     2.6680 ho         1 7JO       0.408000
     55 H17          0.0970     5.6090     3.0310 hn         1 7JO       0.450300
     56 H18          0.7550     4.0620     3.4550 hn         1 7JO       0.450300
     57 H19          7.9230     0.0770     0.8190 hc         1 7JO       0.059700
     58 H20          9.4330     0.5300     0.0170 hc         1 7JO       0.059700
     59 H21         10.3670     3.1860     1.6800 ho         1 7JO       0.403000
     60 H22          8.2020     0.5860    -2.1640 h1         1 7JO       0.087700
     61 H23          8.9860    -1.5190    -2.3280 hc         1 7JO       0.044033
     62 H24          8.9200    -1.6980    -0.5700 hc         1 7JO       0.044033
     63 H25          7.5100    -2.1110    -1.5540 hc         1 7JO       0.044033
@<TRIPOS>BOND
     1    18    13 1   
     2    12    13 ar  
     3    12     3 ar  
     4    13    14 ar  
     5     3     2 ar  
     6    36    31 1   
     7    14     1 ar  
     8     2     1 ar  
     9     2     4 1   
    10    32    10 1   
    11    31    10 1   
    12    31    30 1   
    13     4    17 ar  
    14     4     5 ar  
    15    17    16 ar  
    16    10     8 1   
    17    21    19 2   
    18     5    15 ar  
    19    19    16 1   
    20    19    20 1   
    21    16     6 ar  
    22    30    35 1   
    23    30    27 1   
    24    37    35 1   
    25    37    20 1   
    26    37    38 1   
    27    15     6 ar  
    28    15    23 1   
    29     6    22 1   
    30     8    27 1   
    31     8    24 1   
    32    24     9 1   
    33    24     7 1   
    34     9    28 2   
    35     7    26 ar  
    36     7    25 ar  
    37    26    29 ar  
    38    28    25 1   
    39    25    11 ar  
    40    29    33 ar  
    41    11    33 ar  
    42    11    34 1   
    43     1    39 1   
    44     3    40 1   
    45     5    41 1   
    46     8    42 1   
    47     9    43 1   
    48    10    44 1   
    49    12    45 1   
    50    14    46 1   
    51    17    47 1   
    52    20    48 1   
    53    22    49 1   
    54    23    50 1   
    55    29    51 1   
    56    30    52 1   
    57    31    53 1   
    58    32    54 1   
    59    34    55 1   
    60    34    56 1   
    61    35    57 1   
    62    35    58 1   
    63    36    59 1   
    64    37    60 1   
    65    38    61 1   
    66    38    62 1   
    67    38    63 1   
@<TRIPOS>SUBSTRUCTURE
     1 7JO         1 TEMP              0 ****  ****    0 ROOT
