@<TRIPOS>MOLECULE
7JO
   63    67     1     0     0
SMALL
bcc


@<TRIPOS>ATOM
      1 C4           0.0000     0.0000     0.0000 ca         1 7JO      -0.074500
      2 C5           1.3940     0.0000     0.0000 cp         1 7JO      -0.039000
      3 C6           2.0870     0.0000     1.2090 ca         1 7JO      -0.074500
      4 C7           2.1380    -0.0010    -1.2840 cp         1 7JO      -0.041000
      5 C8           1.4410     0.0060    -2.4940 ca         1 7JO      -0.104000
      6 C10          3.5210     0.0000    -3.6990 ca         1 7JO       0.180100
      7 C20          4.2130     4.7390     1.5030 ca         1 7JO       0.276800
      8 C21          6.2820     3.5230     0.6980 c3         1 7JO       0.153800
      9 C22          4.2150     2.5490     1.7690 cc         1 7JO       0.232700
     10 C26          7.3730     3.7010     1.7770 c3         1 7JO       0.123100
     11 C28          2.0540     5.3010     2.4150 ca         1 7JO       0.592200
     12 C1           1.3900    -0.0010     2.4010 ca         1 7JO      -0.119000
     13 C2           0.0040    -0.0010     2.3960 ca         1 7JO       0.099900
     14 C3          -0.6880     0.0050     1.1960 ca         1 7JO      -0.119000
     15 C9           2.1280     0.0060    -3.6930 ca         1 7JO       0.050100
     16 C11          4.2260    -0.0000    -2.4890 ca         1 7JO      -0.168600
     17 C12          3.5270    -0.0010    -1.2800 ca         1 7JO      -0.078000
     18 F13         -0.6720    -0.0010     3.5640 f          1 7JO      -0.129900
     19 C14          5.7010    -0.0000    -2.4910 c          1 7JO       0.602700
     20 N15          6.3760    -0.0000    -1.3250 ns         1 7JO      -0.200900
     21 O16          6.3070     0.0000    -3.5440 o          1 7JO      -0.627100
     22 O17          4.1950    -0.0000    -4.8770 oh         1 7JO      -0.450100
     23 O18          1.4440     0.0100    -4.8680 oh         1 7JO      -0.496100
     24 N19          4.9500     3.5990     1.3030 na         1 7JO       0.207000
     25 C23          3.0120     4.3220     2.1010 ca         1 7JO      -0.243200
     26 N24          4.3990     6.0310     1.2600 nb         1 7JO      -0.671000
     27 O25          6.5130     2.2050     0.1530 os         1 7JO      -0.407600
     28 N27          3.0780     2.9760     2.2350 nd         1 7JO      -0.490100
     29 C29          3.4740     6.9130     1.5720 ca         1 7JO       0.691900
     30 C30          7.9480     2.0830     0.0480 c3         1 7JO       0.166100
     31 C31          8.4950     2.7320     1.3400 c3         1 7JO       0.126100
     32 O32          7.8500     5.0480     1.7910 oh         1 7JO      -0.537800
     33 N33          2.3290     6.5700     2.1350 nb         1 7JO      -0.740000
     34 N34          0.8510     4.9520     3.0060 nv         1 7JO      -0.487500
     35 C35          8.3530     0.6090    -0.0210 c3         1 7JO      -0.042400
     36 O36          9.7000     3.4490     1.0690 oh         1 7JO      -0.547800
     37 C37          7.8420    -0.0000    -1.3270 c3         1 7JO       0.022700
     38 C38          8.3520    -1.4370    -1.4540 c3         1 7JO      -0.017100
     39 H1          -0.5420     0.0020    -0.9380 ha         1 7JO       0.111000
     40 H2           3.1700    -0.0000     1.2130 ha         1 7JO       0.111000
     41 H3           0.3580     0.0100    -2.4930 ha         1 7JO       0.121000
     42 H4           6.3950     4.2740    -0.0760 h2         1 7JO       0.075700
     43 H5           4.5330     1.5140     1.7560 h5         1 7JO       0.033800
     44 H6           6.9890     3.4180     2.7500 h1         1 7JO       0.017700
     45 H7           1.9270    -0.0030     3.3410 ha         1 7JO       0.118500
     46 H8          -1.7710     0.0050     1.1960 ha         1 7JO       0.118500
     47 H9           4.0670    -0.0010    -0.3410 ha         1 7JO       0.114000
     48 H10          5.8780    -0.0610    -0.4590 hn         1 7JO       0.181500
     49 H11          3.9170    -0.7350    -5.3980 ho         1 7JO       0.409000
     50 H12          1.0610     0.8600    -5.0050 ho         1 7JO       0.410000
     51 H13          3.6610     7.9600     1.3650 h5         1 7JO      -0.002900
     52 H14          8.3070     2.6200    -0.8210 h1         1 7JO       0.054700
     53 H15          8.6580     1.9770     2.1010 h1         1 7JO       0.014700
     54 H16          8.1070     5.2810     2.6680 ho         1 7JO       0.393000
     55 H17          0.0970     5.6090     3.0310 hn         1 7JO       0.277300
     56 H18          0.7550     4.0620     3.4550 hn         1 7JO       0.277300
     57 H19          7.9230     0.0770     0.8190 hc         1 7JO       0.030700
     58 H20          9.4330     0.5300     0.0170 hc         1 7JO       0.030700
     59 H21         10.3670     3.1860     1.6800 ho         1 7JO       0.388000
     60 H22          8.2020     0.5860    -2.1640 h1         1 7JO       0.063700
     61 H23          8.9860    -1.5190    -2.3280 hc         1 7JO       0.012033
     62 H24          8.9200    -1.6980    -0.5700 hc         1 7JO       0.012033
     63 H25          7.5100    -2.1110    -1.5540 hc         1 7JO       0.012033
@<TRIPOS>BOND
     1     1     2 ar  
     2     1    14 ar  
     3     1    39 1   
     4     2     3 ar  
     5     2     4 1   
     6     3    12 ar  
     7     3    40 1   
     8     4     5 ar  
     9     4    17 ar  
    10     5    15 ar  
    11     5    41 1   
    12     6    15 ar  
    13     6    16 ar  
    14     6    22 1   
    15     7    24 1   
    16     7    25 ar  
    17     7    26 ar  
    18     8    10 1   
    19     8    24 1   
    20     8    27 1   
    21     8    42 1   
    22     9    24 1   
    23     9    28 2   
    24     9    43 1   
    25    10    31 1   
    26    10    32 1   
    27    10    44 1   
    28    11    25 ar  
    29    11    33 ar  
    30    11    34 1   
    31    12    13 ar  
    32    12    45 1   
    33    13    14 ar  
    34    13    18 1   
    35    14    46 1   
    36    15    23 1   
    37    16    17 ar  
    38    16    19 1   
    39    17    47 1   
    40    19    20 1   
    41    19    21 2   
    42    20    37 1   
    43    20    48 1   
    44    22    49 1   
    45    23    50 1   
    46    25    28 1   
    47    26    29 ar  
    48    27    30 1   
    49    29    33 ar  
    50    29    51 1   
    51    30    31 1   
    52    30    35 1   
    53    30    52 1   
    54    31    36 1   
    55    31    53 1   
    56    32    54 1   
    57    34    55 1   
    58    34    56 1   
    59    35    37 1   
    60    35    57 1   
    61    35    58 1   
    62    36    59 1   
    63    37    38 1   
    64    37    60 1   
    65    38    61 1   
    66    38    62 1   
    67    38    63 1   
@<TRIPOS>SUBSTRUCTURE
     1 7JO         1 TEMP              0 ****  ****    0 ROOT
