@<TRIPOS>MOLECULE
molecule
   56    60     1     0     0
SMALL
bcc


@<TRIPOS>ATOM
      1 C4           0.0000     0.0000     0.0000 ca         1 7JP       0.125100
      2 C6           2.0980     0.0010    -1.2290 ca         1 7JP      -0.186600
      3 C7           1.4030     0.0000     0.0000 ca         1 7JP       0.172400
      4 C15          7.6590    -1.4390     0.2620 c3         1 7JP      -0.080400
      5 C17          9.6940    -2.8800     0.3990 c3         1 7JP       0.049300
      6 C20         10.8820    -6.2060     1.2480 cc         1 7JP      -0.185200
      7 C21         10.4280    -5.0360    -0.6740 ca         1 7JP      -0.012200
      8 C22         10.8730    -6.2930    -0.2130 ca         1 7JP      -0.234100
      9 C26         10.3240    -4.8400    -2.0500 ca         1 7JP      -0.269300
     10 C28         -2.1390    -0.0200    -3.6800 ca         1 7JP      -0.093000
     11 C1           1.3970     0.0010    -2.4310 ca         1 7JP      -0.060000
     12 C2           0.0090    -0.0090    -2.4130 cp         1 7JP      -0.037000
     13 C3          -0.6830    -0.0050    -1.1970 ca         1 7JP      -0.132000
     14 O5          -0.6830    -0.0010     1.1750 oh         1 7JP      -0.496100
     15 N8           2.1110     0.0000     1.1570 nc         1 7JP      -0.626100
     16 C9           3.4090     0.0000     1.1620 cd         1 7JP       0.500800
     17 N10          4.1600     0.0000     0.0290 n          1 7JP      -0.386300
     18 C11          3.5690     0.0010    -1.1890 c          1 7JP       0.707100
     19 O12          4.2300     0.0020    -2.2120 o          1 7JP      -0.623500
     20 C14          6.1310    -1.4400     0.1600 c3         1 7JP      -0.101400
     21 C16          8.1680    -2.8820     0.2960 c3         1 7JP      -0.104400
     22 N18         10.1830    -4.2620     0.4300 na         1 7JP      -0.069400
     23 C19         10.4610    -4.9710     1.5680 cd         1 7JP      -0.103100
     24 C23         11.1890    -7.2820    -1.1410 ca         1 7JP       0.470200
     25 N24         11.0710    -7.0410    -2.4310 nb         1 7JP      -0.713000
     26 C25         10.6570    -5.8740    -2.8960 ca         1 7JP       0.429200
     27 C27         -0.7450    -0.0100    -3.6910 cp         1 7JP      -0.053000
     28 C29         -2.8350    -0.0260    -4.8710 ca         1 7JP      -0.164000
     29 C30         -2.1530    -0.0170    -6.0760 ca         1 7JP       0.136900
     30 C31         -0.7670     0.0000    -6.0920 ca         1 7JP      -0.164000
     31 C32         -0.0620     0.0010    -4.9060 ca         1 7JP      -0.093000
     32 F33         -2.8390    -0.0230    -7.2400 f          1 7JP      -0.138900
     33 H1           5.9220     0.5120     1.0340 h1         1 7JP       0.070200
     34 H2           6.0410     0.5130    -0.7310 h1         1 7JP       0.070200
     35 H3           7.9600    -0.9290     1.1690 hc         1 7JP       0.045200
     36 H4           8.0780    -0.9280    -0.5960 hc         1 7JP       0.045200
     37 H5          10.1140    -2.3690    -0.4590 h1         1 7JP       0.060700
     38 H6           9.9950    -2.3700     1.3060 h1         1 7JP       0.060700
     39 H8           9.9860    -3.8900    -2.4470 ha         1 7JP       0.132000
     40 H9          -2.6740    -0.0280    -2.7380 ha         1 7JP       0.142000
     41 H10          1.9310    -0.0030    -3.3740 ha         1 7JP       0.159000
     42 H11         -1.7660    -0.0130    -1.1970 ha         1 7JP       0.147000
     43 H12         -1.0800    -0.8450     1.3070 ho         1 7JP       0.420000
     44 H13          3.9190    -0.0010     2.1170 h5         1 7JP       0.057800
     45 H14          5.7120    -1.9510     1.0180 hc         1 7JP       0.057700
     46 H15          5.8300    -1.9500    -0.7470 hc         1 7JP       0.057700
     47 H16          7.7480    -3.3930     1.1540 hc         1 7JP       0.058700
     48 H17          7.8670    -3.3920    -0.6110 hc         1 7JP       0.058700
     49 H18         10.3560    -4.5920     2.5780 h4         1 7JP       0.166000
     50 H19         11.5310    -8.2520    -0.8010 h4         1 7JP       0.023100
     51 H20         10.5790    -5.7280    -3.9670 h4         1 7JP       0.022100
     52 H21         -3.9190    -0.0370    -4.8640 ha         1 7JP       0.148000
     53 H22         -0.2370     0.0080    -7.0370 ha         1 7JP       0.148000
     54 H23          1.0220     0.0110    -4.9190 ha         1 7JP       0.142000
     55 C13          5.6220     0.0020     0.1270 c3         1 7JP       0.090000
     56 H7          11.1730    -6.9870     1.9390 ha         1 7JP       0.157000
@<TRIPOS>BOND
     1    32    29 1
     2    30    29 ar
     3    30    31 ar
     4    29    28 ar
     5    31    27 ar
     6    28    10 ar
     7    27    10 ar
     8    27    12 1
     9    12    11 ar
    10    12    13 ar
    11    11     2 ar
    12    13     1 ar
    13    20     4 1
    14    20    55 1
    15    19    18 2
    16     4    21 1
    17     2    18 1
    18     2     3 ar
    19    18    17 1
    20     1     3 ar
    21     1    14 1
    22     3    15 1
    23    17    55 1
    24    17    16 1
    25     5    21 1
    26     5    22 1
    27    15    16 2
    28    23    22 1
    29    23     6 2
    30    22     7 1
    31     6     8 1
    32     7     9 ar
    33     7     8 ar
    34     9    26 ar
    35     8    24 ar
    36    26    25 ar
    37    24    25 ar
    38    55    33 1
    39    55    34 1
    40     4    35 1
    41     4    36 1
    42     5    37 1
    43     5    38 1
    44     6    56 1
    45     9    39 1
    46    10    40 1
    47    11    41 1
    48    13    42 1
    49    14    43 1
    50    16    44 1
    51    20    45 1
    52    20    46 1
    53    21    47 1
    54    21    48 1
    55    23    49 1
    56    24    50 1
    57    26    51 1
    58    28    52 1
    59    30    53 1
    60    31    54 1
@<TRIPOS>SUBSTRUCTURE
     1 7JP         1 TEMP              0 ****  ****    0 ROOT
