@<TRIPOS>MOLECULE
7JP
   56    60     1     0     0
SMALL
bcc


@<TRIPOS>ATOM
      1 C4           0.0000     0.0000     0.0000 ca         1 7JP       0.146100
      2 C6           2.0980     0.0010    -1.2290 ca         1 7JP      -0.188600
      3 C7           1.4030     0.0000     0.0000 ca         1 7JP       0.116400
      4 C15          7.6590    -1.4390     0.2620 c3         1 7JP      -0.018400
      5 C17          9.6940    -2.8800     0.3990 c3         1 7JP      -0.042700
      6 C20         10.8820    -6.2060     1.2480 cc         1 7JP      -0.139200
      7 C21         10.4280    -5.0360    -0.6740 ca         1 7JP      -0.187200
      8 C22         10.8730    -6.2930    -0.2130 ca         1 7JP      -0.234100
      9 C26         10.3240    -4.8400    -2.0500 ca         1 7JP      -0.230300
     10 C28         -2.1390    -0.0200    -3.6800 ca         1 7JP      -0.072000
     11 C1           1.3970     0.0010    -2.4310 ca         1 7JP      -0.040000
     12 C2           0.0090    -0.0090    -2.4130 cp         1 7JP      -0.027000
     13 C3          -0.6830    -0.0050    -1.1970 ca         1 7JP      -0.127000
     14 O5          -0.6830    -0.0010     1.1750 oh         1 7JP      -0.477100
     15 N8           2.1110     0.0000     1.1570 nc         1 7JP      -0.514100
     16 C9           3.4090     0.0000     1.1620 cd         1 7JP       0.328800
     17 N10          4.1600     0.0000     0.0290 n          1 7JP       0.016700
     18 C11          3.5690     0.0010    -1.1890 c          1 7JP       0.628100
     19 O12          4.2300     0.0020    -2.2120 o          1 7JP      -0.666500
     20 C14          6.1310    -1.4400     0.1600 c3         1 7JP      -0.048400
     21 C16          8.1680    -2.8820     0.2960 c3         1 7JP      -0.050400
     22 N18         10.1830    -4.2620     0.4300 na         1 7JP       0.400600
     23 C19         10.4610    -4.9710     1.5680 cd         1 7JP      -0.258100
     24 C23         11.1890    -7.2820    -1.1410 ca         1 7JP       0.468200
     25 N24         11.0710    -7.0410    -2.4310 nb         1 7JP      -0.613000
     26 C25         10.6570    -5.8740    -2.8960 ca         1 7JP       0.416200
     27 C27         -0.7450    -0.0100    -3.6910 cp         1 7JP      -0.048000
     28 C29         -2.8350    -0.0260    -4.8710 ca         1 7JP      -0.128000
     29 C30         -2.1530    -0.0170    -6.0760 ca         1 7JP       0.106900
     30 C31         -0.7670     0.0000    -6.0920 ca         1 7JP      -0.128000
     31 C32         -0.0620     0.0010    -4.9060 ca         1 7JP      -0.072000
     32 F33         -2.8390    -0.0230    -7.2400 f          1 7JP      -0.127900
     33 H1           5.9220     0.5120     1.0340 h1         1 7JP       0.042200
     34 H2           6.0410     0.5130    -0.7310 h1         1 7JP       0.042200
     35 H3           7.9600    -0.9290     1.1690 hc         1 7JP       0.018200
     36 H4           8.0780    -0.9280    -0.5960 hc         1 7JP       0.018200
     37 H5          10.1140    -2.3690    -0.4590 h1         1 7JP       0.033700
     38 H6           9.9950    -2.3700     1.3060 h1         1 7JP       0.033700
     39 H8           9.9860    -3.8900    -2.4470 ha         1 7JP       0.110000
     40 H9          -2.6740    -0.0280    -2.7380 ha         1 7JP       0.117000
     41 H10          1.9310    -0.0030    -3.3740 ha         1 7JP       0.135000
     42 H11         -1.7660    -0.0130    -1.1970 ha         1 7JP       0.123000
     43 H12         -1.0800    -0.8450     1.3070 ho         1 7JP       0.403000
     44 H13          3.9190    -0.0010     2.1170 h5         1 7JP       0.007800
     45 H14          5.7120    -1.9510     1.0180 hc         1 7JP       0.028200
     46 H15          5.8300    -1.9500    -0.7470 hc         1 7JP       0.028200
     47 H16          7.7480    -3.3930     1.1540 hc         1 7JP       0.028700
     48 H17          7.8670    -3.3920    -0.6110 hc         1 7JP       0.028700
     49 H18         10.3560    -4.5920     2.5780 h4         1 7JP       0.141000
     50 H19         11.5310    -8.2520    -0.8010 h4         1 7JP      -0.022900
     51 H20         10.5790    -5.7280    -3.9670 h4         1 7JP      -0.022900
     52 H21         -3.9190    -0.0370    -4.8640 ha         1 7JP       0.120000
     53 H22         -0.2370     0.0080    -7.0370 ha         1 7JP       0.120000
     54 H23          1.0220     0.0110    -4.9190 ha         1 7JP       0.117000
     55 C13          5.6220     0.0020     0.1270 c3         1 7JP       0.025000
     56 H7          11.1730    -6.9870     1.9390 ha         1 7JP       0.131000
@<TRIPOS>BOND
     1     1     3 ar  
     2     1    13 ar  
     3     1    14 1   
     4     2     3 ar  
     5     2    11 ar  
     6     2    18 1   
     7     3    15 1   
     8     4    20 1   
     9     4    21 1   
    10     4    35 1   
    11     4    36 1   
    12     5    21 1   
    13     5    22 1   
    14     5    37 1   
    15     5    38 1   
    16     6     8 1   
    17     6    23 2   
    18     6    56 1   
    19     7     8 ar  
    20     7     9 ar  
    21     7    22 1   
    22     8    24 ar  
    23     9    26 ar  
    24     9    39 1   
    25    10    27 ar  
    26    10    28 ar  
    27    10    40 1   
    28    11    12 ar  
    29    11    41 1   
    30    12    13 ar  
    31    12    27 1   
    32    13    42 1   
    33    14    43 1   
    34    15    16 2   
    35    16    17 1   
    36    16    44 1   
    37    17    18 1   
    38    17    55 1   
    39    18    19 2   
    40    20    45 1   
    41    20    46 1   
    42    20    55 1   
    43    21    47 1   
    44    21    48 1   
    45    22    23 1   
    46    23    49 1   
    47    24    25 ar  
    48    24    50 1   
    49    25    26 ar  
    50    26    51 1   
    51    27    31 ar  
    52    28    29 ar  
    53    28    52 1   
    54    29    30 ar  
    55    29    32 1   
    56    30    31 ar  
    57    30    53 1   
    58    31    54 1   
    59    33    55 1   
    60    34    55 1   
@<TRIPOS>SUBSTRUCTURE
     1 7JP         1 TEMP              0 ****  ****    0 ROOT
