@<TRIPOS>MOLECULE
molecule
   27    29     1     0     0
SMALL
bcc


@<TRIPOS>ATOM
      1 C4           0.0000     0.0000     0.0000 ca         1 7JQ      -0.275600
      2 C5           1.4190     0.0000     0.0000 ca         1 7JQ       0.422600
      3 C7          -0.6950    -0.0060     1.2170 ca         1 7JQ      -0.103000
      4 C8           0.0150    -0.0050     2.4050 cp         1 7JQ      -0.018000
      5 C10          2.1130     0.0000     1.2250 ca         1 7JQ       0.073800
      6 C13         -2.1080    -0.0160     3.7120 ca         1 7JQ      -0.091500
      7 C15         -2.0750    -0.0150     6.1090 ca         1 7JQ       0.139900
      8 C17         -0.0070    -0.0100     4.8970 ca         1 7JQ      -0.091500
      9 C1           1.3820    -0.0000    -2.2980 ca         1 7JQ       0.675900
     10 N2           0.0570    -0.0020    -2.3400 nb         1 7JQ      -0.736000
     11 C3          -0.6670    -0.0010    -1.2390 ca         1 7JQ       0.480200
     12 N6           2.0590    -0.0010    -1.1750 nb         1 7JQ      -0.702000
     13 C9           1.4180     0.0010     2.3990 ca         1 7JQ      -0.141000
     14 O11          3.4720     0.0010     1.2380 oh         1 7JQ      -0.497100
     15 C12         -0.7140    -0.0110     3.6960 cp         1 7JQ      -0.058000
     16 C14         -2.7820    -0.0160     4.9160 ca         1 7JQ      -0.164500
     17 C16         -0.6890    -0.0140     6.0970 ca         1 7JQ      -0.164500
     18 H1          -1.7780    -0.0100     1.2270 ha         1 7JQ       0.142000
     19 H2          -2.6610    -0.0170     2.7810 ha         1 7JQ       0.140000
     20 H3           1.0760    -0.0090     4.8890 ha         1 7JQ       0.140000
     21 H4           1.9300    -0.0010    -3.2330 h5         1 7JQ       0.062100
     22 H5          -1.7490    -0.0020    -1.2870 h4         1 7JQ       0.034100
     23 H6           1.9560     0.0020     3.3390 ha         1 7JQ       0.148000
     24 H7           3.7850    -0.8660     1.4400 ho         1 7JQ       0.424000
     25 H8          -3.8650    -0.0190     4.9300 ha         1 7JQ       0.148500
     26 H9          -0.1400    -0.0130     7.0310 ha         1 7JQ       0.148500
     27 F18         -2.7390    -0.0130     7.2850 f          1 7JQ      -0.136900
@<TRIPOS>BOND
     1    27     7 1   
     2    17     7 ar  
     3    17     8 ar  
     4     7    16 ar  
     5     8    15 ar  
     6    16     6 ar  
     7    15     6 ar  
     8    15     4 1   
     9     4     3 ar  
    10     4    13 ar  
    11     3     1 ar  
    12    13     5 ar  
    13     1    11 ar  
    14     1     2 ar  
    15     5     2 ar  
    16     5    14 1   
    17    11    10 ar  
    18     2    12 ar  
    19    10     9 ar  
    20    12     9 ar  
    21     3    18 1   
    22     6    19 1   
    23     8    20 1   
    24     9    21 1   
    25    11    22 1   
    26    13    23 1   
    27    14    24 1   
    28    16    25 1   
    29    17    26 1   
@<TRIPOS>SUBSTRUCTURE
     1 7JQ         1 TEMP              0 ****  ****    0 ROOT
