@<TRIPOS>MOLECULE
7JR
   26    27     1     0     0
SMALL
bcc


@<TRIPOS>ATOM
      1 N1           0.0000     0.0000     0.0000 n          1 7JR       0.126000
      2 C4           1.3550     0.0010     2.4020 cc         1 7JR      -0.069000
      3 C5           2.0530     0.0000     1.1730 cc         1 7JR      -0.108200
      4 C6           1.3570     0.0000     0.0000 cd         1 7JR      -0.148400
      5 C7          -0.7230    -0.0010    -1.2750 c3         1 7JR       0.049300
      6 C10          3.5370    -0.0010     1.1590 ca         1 7JR      -0.035800
      7 C13          6.3050    -0.0010     1.1320 ca         1 7JR      -0.100000
      8 C15          4.2310    -1.0910     0.6380 ca         1 7JR      -0.093000
      9 C2          -0.6910    -0.0050     1.1550 c          1 7JR       0.562700
     10 C3          -0.0090    -0.0040     2.3900 cd         1 7JR      -0.003100
     11 O8          -1.9120    -0.0100     1.1340 o          1 7JR      -0.688500
     12 O9          -0.7040    -0.0030     3.5590 oh         1 7JR      -0.463100
     13 C11          4.2410     1.0910     1.6620 ca         1 7JR      -0.093000
     14 C12          5.6210     1.0870     1.6460 ca         1 7JR      -0.099500
     15 C14          5.6110    -1.0830     0.6230 ca         1 7JR      -0.099500
     16 H41          1.8960     0.0020     3.3400 ha         1 7JR       0.122000
     17 H61          1.8930    -0.0010    -0.9410 h4         1 7JR       0.135000
     18 H71         -1.3190    -0.9030    -1.3510 h1         1 7JR       0.025367
     19 H72         -0.0130     0.0320    -2.0920 h1         1 7JR       0.025367
     20 H73         -1.3710     0.8650    -1.3230 h1         1 7JR       0.025367
     21 H131         7.3880     0.0000     1.1200 ha         1 7JR       0.103000
     22 H151         3.6880    -1.9390     0.2390 ha         1 7JR       0.108000
     23 H91         -0.7910    -0.8870     3.8740 ho         1 7JR       0.400000
     24 H111         3.7060     1.9430     2.0640 ha         1 7JR       0.108000
     25 H121         6.1690     1.9340     2.0400 ha         1 7JR       0.103500
     26 H141         6.1520    -1.9310     0.2200 ha         1 7JR       0.103500
@<TRIPOS>BOND
     1     1     4 1   
     2     1     5 1   
     3     1     9 1   
     4     2     3 1   
     5     2    10 2   
     6     2    16 1   
     7     3     4 2   
     8     3     6 1   
     9     4    17 1   
    10     5    18 1   
    11     5    19 1   
    12     5    20 1   
    13     6     8 ar  
    14     6    13 ar  
    15     7    14 ar  
    16     7    15 ar  
    17     7    21 1   
    18     8    15 ar  
    19     8    22 1   
    20     9    10 1   
    21     9    11 2   
    22    10    12 1   
    23    12    23 1   
    24    13    14 ar  
    25    13    24 1   
    26    14    25 1   
    27    15    26 1   
@<TRIPOS>SUBSTRUCTURE
     1 7JR         1 TEMP              0 ****  ****    0 ROOT
