@<TRIPOS>MOLECULE
molecule
   28    30     1     0     0
SMALL
bcc


@<TRIPOS>ATOM
      1 C4           0.0000     0.0000     0.0000 ca         1 7JS      -0.157000
      2 C5           1.4040     0.0140     2.4070 ca         1 7JS      -0.140300
      3 C6           2.1050     0.0000     1.1920 ca         1 7JS      -0.117000
      4 C7           2.1400    -0.0030    -1.2870 cp         1 7JS      -0.054000
      5 C10          3.5330    -0.0100    -1.2950 ca         1 7JS      -0.093000
      6 C13          2.1290    -0.0120    -3.6880 ca         1 7JS      -0.165000
      7 C17         -0.0530     0.0430     4.7100 ca         1 7JS       0.427200
      8 C12          3.5150    -0.0180    -3.6910 ca         1 7JS       0.136900
      9 C9           1.4400    -0.0040    -2.4930 ca         1 7JS      -0.093000
     10 C14          4.2140    -0.0170    -2.4960 ca         1 7JS      -0.165000
     11 C1           1.4030     0.0000     0.0000 cp         1 7JS      -0.015000
     12 C2          -0.7000     0.0080     1.1690 ca         1 7JS       0.081800
     13 O11         -2.0580     0.0080     1.1480 oh         1 7JS      -0.500100
     14 C16          2.0830     0.0150     3.6410 ca         1 7JS      -0.083000
     15 C18          1.3380     0.0300     4.7860 ca         1 7JS      -0.249300
     16 N8          -0.6810     0.0230     3.5590 nb         1 7JS      -0.660000
     17 C3          -0.0130     0.0150     2.4020 ca         1 7JS       0.397600
     18 H1          -0.5340    -0.0000    -0.9420 ha         1 7JS       0.145000
     19 H2           3.1880     0.0000     1.1870 ha         1 7JS       0.139000
     20 H3           4.0820    -0.0090    -0.3610 ha         1 7JS       0.140000
     21 H4           1.5870    -0.0130    -4.6260 ha         1 7JS       0.147500
     22 H5          -0.6310     0.0550     5.6260 h4         1 7JS       0.025100
     23 H6           0.3570     0.0020    -2.4920 ha         1 7JS       0.140000
     24 H7           5.2970    -0.0220    -2.5030 ha         1 7JS       0.147500
     25 H8          -2.3690    -0.8580     0.9420 ho         1 7JS       0.423000
     26 H9           3.1650     0.0050     3.6810 ha         1 7JS       0.141000
     27 H10          1.8290     0.0470     5.7520 ha         1 7JS       0.139000
     28 F15          4.1860    -0.0250    -4.8640 f          1 7JS      -0.139900
@<TRIPOS>BOND
     1     7    16 ar  
     2     7    15 ar  
     3    16    17 ar  
     4    15    14 ar  
     5    13    12 1   
     6    17    12 ar  
     7    17     2 ar  
     8    14     2 ar  
     9    12     1 ar  
    10     2     3 ar  
    11     1    11 ar  
    12     3    11 ar  
    13    11     4 1   
    14     5     4 ar  
    15     5    10 ar  
    16     4     9 ar  
    17    10     8 ar  
    18     9     6 ar  
    19     8     6 ar  
    20     8    28 1   
    21     1    18 1   
    22     3    19 1   
    23     5    20 1   
    24     6    21 1   
    25     7    22 1   
    26     9    23 1   
    27    10    24 1   
    28    13    25 1   
    29    14    26 1   
    30    15    27 1   
@<TRIPOS>SUBSTRUCTURE
     1 7JS         1 TEMP              0 ****  ****    0 ROOT
