@<TRIPOS>MOLECULE
7JU
   28    30     1     0     0
SMALL
bcc


@<TRIPOS>ATOM
      1 F20          0.0000     0.0000     0.0000 f          1 7JU      -0.115900
      2 C1           1.3510     0.0000     0.0000 ca         1 7JU       0.103900
      3 C6           2.0360     0.0000     1.1990 ca         1 7JU       0.108100
      4 O7           1.3530    -0.0010     2.3750 oh         1 7JU      -0.466100
      5 C5           3.4360    -0.0010     1.2010 ca         1 7JU       0.139400
      6 N12          4.1450    -0.0020     2.3570 nc         1 7JU      -0.521100
      7 C11          5.4430    -0.0020     2.3620 cd         1 7JU       0.331800
      8 N10          6.1940    -0.0020     1.2290 ns         1 7JU      -0.016400
      9 C9           5.6040    -0.0010     0.0110 c          1 7JU       0.617100
     10 O13          6.2640    -0.0010    -1.0110 o          1 7JU      -0.656500
     11 C4           4.1340    -0.0010    -0.0290 ca         1 7JU      -0.209600
     12 C3           3.4340    -0.0000    -1.2330 ca         1 7JU      -0.004000
     13 C2           2.0450    -0.0060    -1.2170 cp         1 7JU      -0.066000
     14 C8           1.2930    -0.0060    -2.4950 cp         1 7JU      -0.057000
     15 C18          1.6070     0.9180    -3.4910 ca         1 7JU      -0.056500
     16 C17          0.9080     0.9100    -4.6810 ca         1 7JU      -0.132000
     17 C16         -0.1040    -0.0130    -4.8870 ca         1 7JU       0.110900
     18 F19         -0.7860    -0.0160    -6.0530 f          1 7JU      -0.127900
     19 C15         -0.4190    -0.9330    -3.9000 ca         1 7JU      -0.132000
     20 C14          0.2740    -0.9340    -2.7070 ca         1 7JU      -0.056500
     21 H1           1.0640     0.8750     2.5720 ho         1 7JU       0.407000
     22 H2           5.9530    -0.0030     3.3170 h5         1 7JU       0.005800
     23 H3           7.1920    -0.0020     1.2970 hn         1 7JU       0.184500
     24 H4           3.9690    -0.0050    -2.1750 ha         1 7JU       0.137000
     25 H5           2.3980     1.6400    -3.3310 ha         1 7JU       0.115500
     26 H6           1.1520     1.6280    -5.4560 ha         1 7JU       0.121000
     27 H7          -1.2110    -1.6540    -4.0650 ha         1 7JU       0.121000
     28 H8           0.0260    -1.6540    -1.9360 ha         1 7JU       0.115500
@<TRIPOS>BOND
     1     1     2 1   
     2     2     3 ar  
     3     2    13 ar  
     4     3     4 1   
     5     3     5 ar  
     6     4    21 1   
     7     5     6 1   
     8     5    11 ar  
     9     6     7 2   
    10     7     8 1   
    11     7    22 1   
    12     8     9 1   
    13     8    23 1   
    14     9    10 2   
    15     9    11 1   
    16    11    12 ar  
    17    12    13 ar  
    18    12    24 1   
    19    13    14 1   
    20    14    15 ar  
    21    14    20 ar  
    22    15    16 ar  
    23    15    25 1   
    24    16    17 ar  
    25    16    26 1   
    26    17    18 1   
    27    17    19 ar  
    28    19    20 ar  
    29    19    27 1   
    30    20    28 1   
@<TRIPOS>SUBSTRUCTURE
     1 7JU         1 TEMP              0 ****  ****    0 ROOT
