@<TRIPOS>MOLECULE
molecule
   35    37     1     0     0
SMALL
bcc


@<TRIPOS>ATOM
      1 C11          0.0000     0.0000     0.0000 cc         1 7JV       0.694100
      2 C15          2.1320     0.9150     8.3370 ca         1 7JV      -0.103000
      3 C16          3.1340    -0.0030     8.5930 ca         1 7JV      -0.125000
      4 C17          3.5020    -0.9210     7.6240 ca         1 7JV      -0.128000
      5 C18          2.8680    -0.9260     6.3990 ca         1 7JV      -0.112000
      6 C21         -0.8060     3.7400     7.8280 c3         1 7JV       0.130700
      7 C1           1.8570    -0.0030     6.1360 cp         1 7JV      -0.047000
      8 C2           1.1730    -0.0020     4.8190 cp         1 7JV      -0.056000
      9 N3           1.3040     0.0000     0.0000 nd         1 7JV      -0.723100
     10 C5          -0.2250     0.0090     4.7620 ca         1 7JV      -0.114000
     11 C6          -0.8750     0.0110     3.5440 ca         1 7JV       0.050100
     12 C7           1.9220    -0.0010     3.6500 ca         1 7JV      -0.037000
     13 C8           1.2720    -0.0010     2.4200 ca         1 7JV      -0.208600
     14 C9          -0.1340     0.0050     2.3620 ca         1 7JV       0.143600
     15 N10         -0.7400     0.0050     1.1220 na         1 7JV      -0.699600
     16 C12          2.0130     0.0000     1.1450 c          1 7JV       0.721100
     17 O13          3.2310    -0.0050     1.1290 o          1 7JV      -0.534100
     18 C14          1.4920     0.9190     7.1140 ca         1 7JV      -0.073300
     19 O20          0.2130     2.7510     7.9860 os         1 7JV      -0.432600
     20 H1          -0.5130    -0.0000    -0.9540 h5         1 7JV       0.056800
     21 H2           1.8480     1.6320     9.0990 ha         1 7JV       0.155000
     22 H3           3.6350    -0.0040     9.5540 ha         1 7JV       0.132000
     23 H4           4.2870    -1.6380     7.8290 ha         1 7JV       0.133000
     24 H5           3.1560    -1.6450     5.6410 ha         1 7JV       0.138000
     25 H6           0.6800     2.5350     5.9900 h1         1 7JV       0.039200
     26 H7          -0.5220     1.3980     6.6160 h1         1 7JV       0.039200
     27 H8          -1.7640     3.2530     7.6870 h1         1 7JV       0.031033
     28 H9          -0.5830     4.3540     6.9640 h1         1 7JV       0.031033
     29 H10         -0.8450     4.3630     8.7130 h1         1 7JV       0.031033
     30 H11         -2.5620    -0.8110     3.8080 ho         1 7JV       0.422000
     31 H12         -0.8010    -0.0030     5.6790 ha         1 7JV       0.153000
     32 H13          2.9960     0.1340     3.6950 ha         1 7JV       0.171000
     33 H14         -1.7390     0.0050     1.0580 hn         1 7JV       0.462800
     34 O4          -2.2340     0.0160     3.4960 oh         1 7JV      -0.521100
     35 C19          0.4010     1.9210     6.8380 c3         1 7JV       0.178700
@<TRIPOS>BOND
     1     2     3 ar
     2     2    18 ar
     3    35    19 1
     4    35    18 1
     5     6    19 1
     6     3     4 ar
     7    18     7 ar
     8     4     5 ar
     9     7     5 ar
    10     7     8 1
    11     8    12 ar
    12     8    10 ar
    13    12    13 ar
    14    10    11 ar
    15    13    16 1
    16    13    14 ar
    17    17    16 2
    18    11    14 ar
    19    11    34 1
    20    16     9 1
    21    14    15 1
    22     9     1 2
    23    15     1 1
    24     1    20 1
    25     2    21 1
    26     3    22 1
    27     4    23 1
    28     5    24 1
    29    35    25 1
    30    35    26 1
    31     6    27 1
    32     6    28 1
    33     6    29 1
    34    34    30 1
    35    10    31 1
    36    12    32 1
    37    15    33 1
@<TRIPOS>SUBSTRUCTURE
     1 7JV         1 TEMP              0 ****  ****    0 ROOT
