@<TRIPOS>MOLECULE
molecule
   27    29     1     0     0
SMALL
bcc


@<TRIPOS>ATOM
      1 C4           0.0000     0.0000     0.0000 ca         1 7JW       0.087800
      2 C5           1.4120     0.0000     0.0000 ca         1 7JW       0.275300
      3 C6           2.1110     0.0000     1.2350 ca         1 7JW       0.316300
      4 C8           4.1010    -0.0030     0.0940 ca         1 7JW       0.309900
      5 C13         -0.0860     0.0030     4.8970 ca         1 7JW      -0.089500
      6 C15         -2.1860     0.0090     6.0490 ca         1 7JW       0.140900
      7 C17         -2.1520     0.0240     3.6530 ca         1 7JW      -0.089500
      8 C1          -0.6800     0.0060     1.1810 ca         1 7JW      -0.158000
      9 C2           0.0060     0.0120     2.4050 cp         1 7JW      -0.004000
     10 C3           1.3880     0.0010     2.4380 ca         1 7JW      -0.167300
     11 N7           3.4490    -0.0010     1.2350 nb         1 7JW      -0.645000
     12 C9           3.4110    -0.0020    -1.1190 ca         1 7JW       0.294900
     13 N10          2.0980    -0.0020    -1.1460 nb         1 7JW      -0.619000
     14 C11         -0.7590     0.0130     3.6760 cp         1 7JW      -0.060000
     15 O12         -0.6810     0.0000    -1.1760 oh         1 7JW      -0.500100
     16 C14         -0.8010    -0.0010     6.0760 ca         1 7JW      -0.165500
     17 C16         -2.8590     0.0250     4.8380 ca         1 7JW      -0.165500
     18 H1           5.1840    -0.0030     0.0950 h4         1 7JW       0.033100
     19 H2           0.9970    -0.0050     4.9190 ha         1 7JW       0.142500
     20 H3          -2.6790     0.0340     2.7070 ha         1 7JW       0.142500
     21 H4          -1.7640     0.0150     1.1740 ha         1 7JW       0.148000
     22 H5           1.9110     0.0060     3.3870 ha         1 7JW       0.156000
     23 H6           3.9660    -0.0030    -2.0500 h4         1 7JW       0.034100
     24 H7          -1.0150    -0.8650    -1.3460 ho         1 7JW       0.425000
     25 H8          -0.2790    -0.0100     7.0260 ha         1 7JW       0.148500
     26 H9          -3.9420     0.0330     4.8210 ha         1 7JW       0.148500
     27 F18         -2.8830     0.0050     7.2070 f          1 7JW      -0.137900
@<TRIPOS>BOND
     1    27     6 1
     2    17     6 ar
     3    17     7 ar
     4     6    16 ar
     5     7    14 ar
     6    16     5 ar
     7    14     5 ar
     8    14     9 1
     9     9    10 ar
    10     9     8 ar
    11    10     3 ar
    12     8     1 ar
    13     3    11 ar
    14     3     2 ar
    15     1     2 ar
    16     1    15 1
    17    11     4 ar
    18     2    13 ar
    19     4    12 ar
    20    13    12 ar
    21     4    18 1
    22     5    19 1
    23     7    20 1
    24     8    21 1
    25    10    22 1
    26    12    23 1
    27    15    24 1
    28    16    25 1
    29    17    26 1
@<TRIPOS>SUBSTRUCTURE
     1 7JW         1 TEMP              0 ****  ****    0 ROOT
