@<TRIPOS>MOLECULE
molecule
   18    19     1     0     0
SMALL
bcc


@<TRIPOS>ATOM
      1 C4           0.0000     0.0000     0.0000 ca         1 7JX       0.085800
      2 C5           1.4100     0.0000     0.0000 ca         1 7JX       0.401600
      3 C6           2.0990     0.0000     1.2380 ca         1 7JX      -0.138300
      4 C7           3.5060    -0.0000     1.2390 ca         1 7JX      -0.074000
      5 C8           4.1500    -0.0000     0.0320 ca         1 7JX      -0.095900
      6 C1          -0.6760     0.0060     1.1860 ca         1 7JX      -0.148000
      7 C2           0.0070     0.0130     2.4010 ca         1 7JX       0.002100
      8 C3           1.3680    -0.0000     2.4390 ca         1 7JX      -0.094000
      9 C9           3.4110    -0.0010    -1.1500 ca         1 7JX       0.441200
     10 N10          2.1000    -0.0000    -1.1440 nb         1 7JX      -0.645000
     11 Br1         -0.9710     0.0120     4.0200 br         1 7JX      -0.082100
     12 O12         -0.6820    -0.0000    -1.1740 oh         1 7JX      -0.494100
     13 Cl3          5.8850     0.0010    -0.0270 cl         1 7JX      -0.091400
     14 H1           4.0630     0.0010     2.1680 ha         1 7JX       0.158000
     15 H2          -1.7590     0.0160     1.1830 ha         1 7JX       0.158000
     16 H3           1.8860     0.0050     3.3910 ha         1 7JX       0.152000
     17 H4           3.9340    -0.0010    -2.0980 h4         1 7JX       0.040100
     18 H5          -1.0690    -0.8490    -1.3130 ho         1 7JX       0.426000
@<TRIPOS>BOND
     1    11     7 1   
     2     7     8 ar  
     3     7     6 ar  
     4     8     3 ar  
     5     6     1 ar  
     6     3     4 ar  
     7     3     2 ar  
     8     1     2 ar  
     9     1    12 1   
    10     4     5 ar  
    11     2    10 ar  
    12     5     9 ar  
    13     5    13 1   
    14    10     9 ar  
    15     4    14 1   
    16     6    15 1   
    17     8    16 1   
    18     9    17 1   
    19    12    18 1   
@<TRIPOS>SUBSTRUCTURE
     1 7JX         1 TEMP              0 ****  ****    0 ROOT
