@<TRIPOS>MOLECULE
molecule
   71    75     1     0     0
SMALL
bcc


@<TRIPOS>ATOM
      1 C01          0.0000     0.0000     0.0000 ce         1 7JY      -0.103400
      2 C02          1.5320     0.0000     0.0000 c3         1 7JY       0.173300
      3 C03          1.9390     0.0000     1.5060 c3         1 7JY      -0.075400
      4 C04          1.5120     1.4230     1.9550 c3         1 7JY      -0.267900
      5 C05         -0.3720     1.2440     0.3910 cf         1 7JY      -0.055400
      6 C06          0.9270     2.0160     0.6340 c3         1 7JY       0.194300
      7 O01          1.8040     1.3950    -0.3660 os         1 7JY      -0.382600
      8 C07         -0.8870    -1.1200    -0.3580 ca         1 7JY      -0.041800
      9 C08         -1.7470     1.7490     0.5490 ca         1 7JY      -0.104800
     10 C09         -1.7170    -1.0260    -1.4790 ca         1 7JY      -0.098500
     11 C10         -2.5450    -2.0770    -1.8110 ca         1 7JY      -0.152500
     12 C11         -2.5560    -3.2270    -1.0320 ca         1 7JY       0.106100
     13 C12         -1.7330    -3.3250     0.0820 ca         1 7JY      -0.152500
     14 C13         -0.8980    -2.2830     0.4180 ca         1 7JY      -0.098500
     15 C14         -2.5860     1.2070     1.5270 ca         1 7JY      -0.070500
     16 C15         -3.8710     1.6830     1.6720 ca         1 7JY      -0.194500
     17 C16         -4.3330     2.7000     0.8470 ca         1 7JY       0.165100
     18 C18         -3.5030     3.2440    -0.1260 ca         1 7JY      -0.194500
     19 C19         -2.2150     2.7780    -0.2730 ca         1 7JY      -0.070500
     20 O02         -3.3740    -4.2600    -1.3630 oh         1 7JY      -0.521100
     21 O03         -5.6010     3.1670     0.9930 os         1 7JY      -0.327900
     22 C25          2.8010     1.6290     4.8090 ca         1 7JY       0.101100
     23 C26          1.7960     0.7040     5.0500 ca         1 7JY      -0.145000
     24 C27          1.0640     0.7690     6.2220 ca         1 7JY       0.039400
     25 C28          1.3340     1.7570     7.1530 ca         1 7JY      -0.110000
     26 C29          2.3350     2.6790     6.9140 ca         1 7JY      -0.105000
     27 C30          3.0690     2.6180     5.7460 ca         1 7JY      -0.092000
     28 Cl1         -0.1940    -0.3890     6.5240 cl         1 7JY      -0.092400
     29 S01          2.9450     2.3830     2.5160 s6         1 7JY       1.451500
     30 O07          3.9680     2.3770     1.5290 o          1 7JY      -0.612800
     31 O08          2.5260     3.5940     3.1300 o          1 7JY      -0.612800
     32 O04          3.5250     1.5640     3.6620 os         1 7JY      -0.452800
     33 C17         -6.0130     4.2140     0.1120 c3         1 7JY       0.131400
     34 C20         -7.4580     4.6050     0.4240 c3         1 7JY      -0.083400
     35 C21         -7.8990     5.7270    -0.5180 c3         1 7JY      -0.080400
     36 C22         -9.3450     6.1170    -0.2060 c3         1 7JY      -0.086400
     37 C23         -9.7850     7.2380    -1.1490 c3         1 7JY      -0.063400
     38 H1           2.0070    -0.7490    -0.6220 h1         1 7JY       0.110700
     39 H2           1.3910    -0.7580     2.0540 hc         1 7JY       0.063700
     40 H3           3.0080    -0.1360     1.6170 hc         1 7JY       0.063700
     41 H4           0.7520     1.3740     2.7250 h1         1 7JY       0.117700
     42 H5           0.8550     3.0960     0.5870 h1         1 7JY       0.117700
     43 H6          -1.7090    -0.1290    -2.0870 ha         1 7JY       0.137500
     44 H7          -3.1880    -2.0050    -2.6800 ha         1 7JY       0.141500
     45 H8          -1.7430    -4.2250     0.6840 ha         1 7JY       0.141500
     46 H9          -0.2560    -2.3610     1.2870 ha         1 7JY       0.137500
     47 H10         -2.2270     0.4130     2.1710 ha         1 7JY       0.133500
     48 H11         -4.5220     1.2630     2.4290 ha         1 7JY       0.146000
     49 H12         -3.8680     4.0390    -0.7650 ha         1 7JY       0.146000
     50 H13         -1.5690     3.2020    -1.0320 ha         1 7JY       0.133500
     51 H14         -2.9190    -4.8470    -1.9450 ho         1 7JY       0.417000
     52 H15          1.5850    -0.0690     4.3210 ha         1 7JY       0.154000
     53 H16          0.7600     1.8070     8.0700 ha         1 7JY       0.151000
     54 H17          2.5450     3.4510     7.6440 ha         1 7JY       0.149000
     55 H18          3.8530     3.3420     5.5600 ha         1 7JY       0.160000
     56 H22         -5.3690     5.0750     0.2490 h1         1 7JY       0.035700
     57 H23         -5.9450     3.8720    -0.9130 h1         1 7JY       0.035700
     58 H24         -8.1020     3.7450     0.2870 hc         1 7JY       0.052700
     59 H25         -7.5260     4.9470     1.4500 hc         1 7JY       0.052700
     60 H26         -7.2550     6.5870    -0.3810 hc         1 7JY       0.040700
     61 H27         -7.8310     5.3840    -1.5440 hc         1 7JY       0.040700
     62 H28         -9.9890     5.2570    -0.3430 hc         1 7JY       0.031700
     63 H29         -9.4130     6.4600     0.8190 hc         1 7JY       0.031700
     64 H30         -9.1410     8.0980    -1.0130 hc         1 7JY       0.045700
     65 H31         -9.7170     6.8950    -2.1750 hc         1 7JY       0.045700
     66 C1         -11.2310     7.6290    -0.8370 c3         1 7JY      -0.182400
     67 C2         -11.6650     8.7340    -1.7650 c          1 7JY       0.891600
     68 O1         -10.8960     9.1650    -2.5920 o          1 7JY      -0.857300
     69 O2         -12.9050     9.2390    -1.6740 o          1 7JY      -0.857300
     70 H32        -11.8750     6.7680    -0.9750 hc         1 7JY       0.027700
     71 H33        -11.3000     7.9710     0.1880 hc         1 7JY       0.027700
@<TRIPOS>BOND
     1     1     2 1   
     2     1     5 2   
     3     1     8 1   
     4     2     3 1   
     5     2     7 1   
     6     3     4 1   
     7     4     6 1   
     8     4    29 1   
     9     5     6 1   
    10     5     9 1   
    11     6     7 1   
    12     8    10 ar  
    13     8    14 ar  
    14     9    15 ar  
    15     9    19 ar  
    16    10    11 ar  
    17    11    12 ar  
    18    12    13 ar  
    19    12    20 1   
    20    13    14 ar  
    21    15    16 ar  
    22    16    17 ar  
    23    17    18 ar  
    24    17    21 1   
    25    18    19 ar  
    26    21    33 1   
    27    22    23 ar  
    28    22    27 ar  
    29    22    32 1   
    30    23    24 ar  
    31    24    25 ar  
    32    25    26 ar  
    33    26    27 ar  
    34    29    30 2   
    35    29    31 2   
    36    29    32 1   
    37    33    34 1   
    38    34    35 1   
    39    35    36 1   
    40    36    37 1   
    41    24    28 1   
    42     2    38 1   
    43     3    39 1   
    44     3    40 1   
    45     4    41 1   
    46     6    42 1   
    47    10    43 1   
    48    11    44 1   
    49    13    45 1   
    50    14    46 1   
    51    15    47 1   
    52    16    48 1   
    53    18    49 1   
    54    19    50 1   
    55    20    51 1   
    56    23    52 1   
    57    25    53 1   
    58    26    54 1   
    59    27    55 1   
    60    33    56 1   
    61    33    57 1   
    62    34    58 1   
    63    34    59 1   
    64    35    60 1   
    65    35    61 1   
    66    36    62 1   
    67    36    63 1   
    68    37    64 1   
    69    37    65 1   
    70    37    66 1   
    71    66    67 1   
    72    67    68 1   
    73    67    69 1   
    74    66    70 1   
    75    66    71 1   
@<TRIPOS>SUBSTRUCTURE
     1 7JY         1 TEMP              0 ****  ****    0 ROOT
