@<TRIPOS>MOLECULE
7K0
   58    58     1     0     0
SMALL
bcc


@<TRIPOS>ATOM
      1 C1           0.0000     0.0000     0.0000 ca         1 7K0      -0.102300
      2 C2          -0.7530     0.0000    -1.3060 c3         1 7K0       0.298700
      3 C8           1.3830     0.0000     0.0000 ca         1 7K0      -0.075500
      4 C9           2.0730     0.0000     1.1980 ca         1 7K0      -0.113500
      5 C10          1.3810    -0.0010     2.3950 ca         1 7K0      -0.105000
      6 C11         -0.0010    -0.0020     2.3940 ca         1 7K0      -0.113500
      7 C12         -0.6910     0.0060     1.1970 ca         1 7K0      -0.075500
      8 C20         -0.6580    -1.5570   -11.5690 c3         1 7K0      -0.100300
      9 C21          0.6640    -1.5170   -12.3390 c3         1 7K0      -0.020400
     10 C22          1.8040    -1.1700   -11.3800 c3         1 7K0      -0.065700
     11 C24          3.1390    -1.2520   -12.1230 c3         1 7K0       0.003400
     12 N26         -1.8310    -6.1080    -8.1820 nz         1 7K0       0.049400
     13 C6          -2.6450    -2.9830    -4.5860 c3         1 7K0       0.024800
     14 P13         -1.4530    -3.2110    -5.9470 p5         1 7K0       0.479500
     15 O14         -0.5410    -4.5040    -5.6490 o          1 7K0      -0.620000
     16 O15         -0.5900    -2.0130    -6.0520 o          1 7K0      -0.620000
     17 N16         -2.2870    -3.4310    -7.3910 n7         1 7K0      -0.579300
     18 C17         -1.3610    -3.7250    -8.4930 c3         1 7K0       0.111500
     19 C18         -1.3970    -2.5990    -9.4940 c          1 7K0       0.560100
     20 N19         -0.6230    -2.6520   -10.5960 ns         1 7K0      -0.155900
     21 C23          1.6040     0.2500   -10.8440 c3         1 7K0       0.003400
     22 O27         -2.1220    -1.6450    -9.3080 o          1 7K0      -0.585100
     23 C28         -1.7950    -1.7780   -12.5330 c          1 7K0       0.983600
     24 O29         -2.0210    -0.8940   -13.5180 o          1 7K0      -0.899800
     25 O30         -2.5040    -2.7500   -12.4190 o          1 7K0      -0.899800
     26 O3          -0.9940    -1.3690    -1.7250 os         1 7K0      -0.435900
     27 C4          -1.6610    -1.5450    -2.8810 c          1 7K0       0.661100
     28 N5          -1.9180    -2.7900    -3.3270 ns         1 7K0      -0.087900
     29 O7          -2.0310    -0.5820    -3.5220 o          1 7K0      -0.646000
     30 C25         -1.7800    -5.0280    -9.1770 c3         1 7K0      -0.074200
     31 H1          -1.7000     0.5110    -1.1760 h1         1 7K0       0.015200
     32 H2          -0.1670     0.5110    -2.0600 h1         1 7K0       0.015200
     33 H3           1.9250     0.0010    -0.9380 ha         1 7K0       0.110000
     34 H4           3.1560     0.0000     1.1980 ha         1 7K0       0.097500
     35 H5           1.9220    -0.0040     3.3330 ha         1 7K0       0.094000
     36 H6          -0.5430     0.0000     3.3320 ha         1 7K0       0.097500
     37 H7          -1.7750     0.0050     1.1970 ha         1 7K0       0.110000
     38 H8          -0.8020    -0.6170   -11.0500 h1         1 7K0       0.071700
     39 H9           0.6060    -0.7660   -13.1180 hc         1 7K0       0.026700
     40 H10          0.8510    -2.4860   -12.7860 hc         1 7K0       0.026700
     41 H11          1.8070    -1.8710   -10.5540 hc         1 7K0       0.018700
     42 H12          3.2600    -2.2450   -12.5390 hc         1 7K0       0.000200
     43 H13          3.9490    -1.0480   -11.4340 hc         1 7K0       0.000200
     44 H14          3.1520    -0.5210   -12.9230 hc         1 7K0       0.000200
     45 H15         -2.6120    -5.9640    -7.5730 hn         1 7K0       0.221467
     46 H16         -0.9850    -6.1090    -7.6470 hn         1 7K0       0.221467
     47 H18         -3.2760    -3.8590    -4.5080 h1         1 7K0       0.030700
     48 H19         -3.2580    -2.1120    -4.7860 h1         1 7K0       0.030700
     49 H21         -3.2020    -3.8360    -7.3840 hn         1 7K0       0.262800
     50 H22         -0.3560    -3.8300    -8.1030 h1         1 7K0       0.074700
     51 H23         -0.0510    -3.4560   -10.7680 hn         1 7K0       0.137500
     52 H24          1.2630     0.8940   -11.6450 hc         1 7K0       0.000200
     53 H25          2.5430     0.6240   -10.4540 hc         1 7K0       0.000200
     54 H26          0.8650     0.2360   -10.0520 hc         1 7K0       0.000200
     55 H28         -1.6430    -3.5830    -2.7830 hn         1 7K0       0.156500
     56 H29         -2.7590    -4.9030    -9.6250 hx         1 7K0       0.081700
     57 H30         -1.0600    -5.2800    -9.9470 hx         1 7K0       0.081700
     58 H263        -1.9310    -6.9880    -8.6490 hn         1 7K0       0.221467
@<TRIPOS>BOND
     1     1     2 1   
     2     1     3 ar  
     3     1     7 ar  
     4     2    26 1   
     5     2    31 1   
     6     2    32 1   
     7     3     4 ar  
     8     3    33 1   
     9     4     5 ar  
    10     4    34 1   
    11     5     6 ar  
    12     5    35 1   
    13     6     7 ar  
    14     6    36 1   
    15     7    37 1   
    16     8     9 1   
    17     8    20 1   
    18     8    23 1   
    19     8    38 1   
    20     9    10 1   
    21     9    39 1   
    22     9    40 1   
    23    10    11 1   
    24    10    21 1   
    25    10    41 1   
    26    11    42 1   
    27    11    43 1   
    28    11    44 1   
    29    12    30 1   
    30    12    45 1   
    31    12    46 1   
    32    12    58 1   
    33    13    14 1   
    34    13    28 1   
    35    13    47 1   
    36    13    48 1   
    37    14    15 1   
    38    14    16 1   
    39    14    17 1   
    40    17    18 1   
    41    17    49 1   
    42    18    19 1   
    43    18    30 1   
    44    18    50 1   
    45    19    20 1   
    46    19    22 2   
    47    20    51 1   
    48    21    52 1   
    49    21    53 1   
    50    21    54 1   
    51    23    24 1   
    52    23    25 1   
    53    26    27 1   
    54    27    28 1   
    55    27    29 2   
    56    28    55 1   
    57    30    56 1   
    58    30    57 1   
@<TRIPOS>SUBSTRUCTURE
     1 7K0         1 TEMP              0 ****  ****    0 ROOT
