@<TRIPOS>MOLECULE
molecule
   58    58     1     0     0
SMALL
bcc


@<TRIPOS>ATOM
      1 C1           0.0000     0.0000     0.0000 ca         1 7K0      -0.087300
      2 C2          -0.7530     0.0000    -1.3060 c3         1 7K0       0.215700
      3 C8           1.3830     0.0000     0.0000 ca         1 7K0      -0.103000
      4 C9           2.0730     0.0000     1.1980 ca         1 7K0      -0.138500
      5 C10          1.3810    -0.0010     2.3950 ca         1 7K0      -0.129000
      6 C11         -0.0010    -0.0020     2.3940 ca         1 7K0      -0.138500
      7 C12         -0.6910     0.0060     1.1970 ca         1 7K0      -0.103000
      8 C20         -0.6580    -1.5570   -11.5690 c3         1 7K0       0.007700
      9 C21          0.6640    -1.5170   -12.3390 c3         1 7K0      -0.071400
     10 C22          1.8040    -1.1700   -11.3800 c3         1 7K0      -0.084700
     11 C24          3.1390    -1.2520   -12.1230 c3         1 7K0      -0.087100
     12 N26         -1.8310    -6.1080    -8.1820 nz         1 7K0      -0.810600
     13 C6          -2.6450    -2.9830    -4.5860 c3         1 7K0      -0.055200
     14 P13         -1.4530    -3.2110    -5.9470 p5         1 7K0       1.089500
     15 O14         -0.5410    -4.5040    -5.6490 o          1 7K0      -0.794500
     16 O15         -0.5900    -2.0130    -6.0520 o          1 7K0      -0.794500
     17 N16         -2.2870    -3.4310    -7.3910 n7         1 7K0      -0.905300
     18 C17         -1.3610    -3.7250    -8.4930 c3         1 7K0       0.140500
     19 C18         -1.3970    -2.5990    -9.4940 c          1 7K0       0.657100
     20 N19         -0.6230    -2.6520   -10.5960 ns         1 7K0      -0.555900
     21 C23          1.6040     0.2500   -10.8440 c3         1 7K0      -0.087100
     22 O27         -2.1220    -1.6450    -9.3080 o          1 7K0      -0.537100
     23 C28         -1.7950    -1.7780   -12.5330 c          1 7K0       0.890600
     24 O29         -2.0210    -0.8940   -13.5180 o          1 7K0      -0.848800
     25 O30         -2.5040    -2.7500   -12.4190 o          1 7K0      -0.848800
     26 O3          -0.9940    -1.3690    -1.7250 os         1 7K0      -0.447900
     27 C4          -1.6610    -1.5450    -2.8810 c          1 7K0       0.748100
     28 N5          -1.9180    -2.7900    -3.3270 ns         1 7K0      -0.530900
     29 O7          -2.0310    -0.5820    -3.5220 o          1 7K0      -0.594000
     30 C25         -1.7800    -5.0280    -9.1770 c3         1 7K0       0.072800
     31 H1          -1.7000     0.5110    -1.1760 h1         1 7K0       0.057700
     32 H2          -0.1670     0.5110    -2.0600 h1         1 7K0       0.057700
     33 H3           1.9250     0.0010    -0.9380 ha         1 7K0       0.138000
     34 H4           3.1560     0.0000     1.1980 ha         1 7K0       0.124000
     35 H5           1.9220    -0.0040     3.3330 ha         1 7K0       0.121000
     36 H6          -0.5430     0.0000     3.3320 ha         1 7K0       0.124000
     37 H7          -1.7750     0.0050     1.1970 ha         1 7K0       0.138000
     38 H8          -0.8020    -0.6170   -11.0500 h1         1 7K0       0.089700
     39 H9           0.6060    -0.7660   -13.1180 hc         1 7K0       0.051700
     40 H10          0.8510    -2.4860   -12.7860 hc         1 7K0       0.051700
     41 H11          1.8070    -1.8710   -10.5540 hc         1 7K0       0.042700
     42 H12          3.2600    -2.2450   -12.5390 hc         1 7K0       0.029700
     43 H13          3.9490    -1.0480   -11.4340 hc         1 7K0       0.029700
     44 H14          3.1520    -0.5210   -12.9230 hc         1 7K0       0.029700
     45 H15         -2.6120    -5.9640    -7.5730 hn         1 7K0       0.449800
     46 H16         -0.9850    -6.1090    -7.6470 hn         1 7K0       0.449800
     47 H18         -3.2760    -3.8590    -4.5080 h1         1 7K0       0.054700
     48 H19         -3.2580    -2.1120    -4.7860 h1         1 7K0       0.054700
     49 H21         -3.2020    -3.8360    -7.3840 hn         1 7K0       0.376800
     50 H22         -0.3560    -3.8300    -8.1030 h1         1 7K0       0.105700
     51 H23         -0.0510    -3.4560   -10.7680 hn         1 7K0       0.279500
     52 H24          1.2630     0.8940   -11.6450 hc         1 7K0       0.029700
     53 H25          2.5430     0.6240   -10.4540 hc         1 7K0       0.029700
     54 H26          0.8650     0.2360   -10.0520 hc         1 7K0       0.029700
     55 H28         -1.6430    -3.5830    -2.7830 hn         1 7K0       0.319500
     56 H29         -2.7590    -4.9030    -9.6250 hx         1 7K0       0.111200
     57 H30         -1.0600    -5.2800    -9.9470 hx         1 7K0       0.111200
     58 H263        -1.9310    -6.9880    -8.6490 hn         1 7K0       0.449800
@<TRIPOS>BOND
     1     6     7 ar  
     2     6     5 ar  
     3     7     1 ar  
     4     5     4 ar  
     5     1     2 1   
     6     1     3 ar  
     7     4     3 ar  
     8     2    26 1   
     9    26    27 1   
    10    29    27 2   
    11    27    28 1   
    12    28    13 1   
    13    13    14 1   
    14    16    14 1   
    15    15    14 1   
    16    14    17 1   
    17    25    23 1   
    18    24    23 1   
    19    23     8 1   
    20     8    20 1   
    21     8     9 1   
    22    17    18 1   
    23    20    19 1   
    24    19    22 2   
    25    19    18 1   
    26    18    30 1   
    27     9    10 1   
    28    10    11 1   
    29    10    21 1   
    30    30    12 1   
    31     2    31 1   
    32     2    32 1   
    33     3    33 1   
    34     4    34 1   
    35     5    35 1   
    36     6    36 1   
    37     7    37 1   
    38     8    38 1   
    39     9    39 1   
    40     9    40 1   
    41    10    41 1   
    42    11    42 1   
    43    11    43 1   
    44    11    44 1   
    45    12    45 1   
    46    12    46 1   
    47    13    47 1   
    48    13    48 1   
    49    17    49 1   
    50    18    50 1   
    51    20    51 1   
    52    21    52 1   
    53    21    53 1   
    54    21    54 1   
    55    28    55 1   
    56    30    56 1   
    57    30    57 1   
    58    58    12 1   
@<TRIPOS>SUBSTRUCTURE
     1 7K0         1 TEMP              0 ****  ****    0 ROOT
