@<TRIPOS>MOLECULE
molecule
   72    78     1     0     0
SMALL
bcc


@<TRIPOS>ATOM
      1 C1           0.0000     0.0000     0.0000 cc         1 7K1      -0.124400
      2 C2          -1.6850    -0.0020     3.4200 ca         1 7K1      -0.290300
      3 C3          -0.4860    -0.0010     4.1180 ca         1 7K1       0.447200
      4 C11          1.3580     0.0000     0.0000 cd         1 7K1       0.008700
      5 C12         -2.2950     1.4400    -2.6720 c          1 7K1       0.658100
      6 C14          2.2100     0.0010    -1.2060 ca         1 7K1      -0.046800
      7 C15          2.2330    -1.1170    -2.0570 cp         1 7K1      -0.002000
      8 C16          3.0420    -1.1020    -3.1900 ca         1 7K1      -0.118000
      9 C17          3.8140     0.0060    -3.4730 ca         1 7K1      -0.070300
     10 C18          3.7930     1.1080    -2.6340 ca         1 7K1      -0.134000
     11 C19          2.9930     1.1150    -1.5100 ca         1 7K1      -0.111000
     12 C20          1.4030    -2.3050    -1.7490 cp         1 7K1      -0.052000
     13 C21          0.4890    -2.7820    -2.6880 ca         1 7K1      -0.106000
     14 C22         -0.2820    -3.8890    -2.3950 ca         1 7K1      -0.127500
     15 C23         -0.1490    -4.5250    -1.1750 ca         1 7K1      -0.123000
     16 C24          0.7550    -4.0560    -0.2390 ca         1 7K1      -0.127500
     17 C25          1.5370    -2.9540    -0.5220 ca         1 7K1      -0.106000
     18 C26          4.6880     0.0160    -4.7000 c3         1 7K1      -0.049800
     19 C28         -2.1780     3.8910    -2.7320 c3         1 7K1       0.069000
     20 C29         -1.7470     4.7030    -3.9590 c3         1 7K1       0.118400
     21 C30         -3.2450     3.5030    -5.4000 c3         1 7K1       0.127400
     22 N4           0.6740    -0.0020     3.4960 nb         1 7K1      -0.717000
     23 C5          -0.4220    -0.0010     1.3980 ca         1 7K1      -0.215100
     24 C6           0.7550     0.0000     2.1710 ca         1 7K1       0.468800
     25 N7           1.8170     0.0000     1.2990 na         1 7K1      -0.276100
     26 C8          -0.8970     0.0060    -1.2100 c3         1 7K1       0.007800
     27 C9          -1.3020     1.4440    -1.5380 c3         1 7K1      -0.150400
     28 C10         -1.6660    -0.0020     2.0390 ca         1 7K1      -0.046000
     29 O13         -2.7080     0.3890    -3.1140 o          1 7K1      -0.568100
     30 N27         -2.7250     2.6060    -3.1960 n          1 7K1      -0.498800
     31 C31         -3.7530     2.6300    -4.2480 c3         1 7K1       0.093400
     32 O32         -2.8340     4.7730    -4.8840 os         1 7K1      -0.418600
     33 C33         -4.0040     1.2300    -4.7450 cd         1 7K1       0.419800
     34 C34         -5.0370    -0.6280    -5.3420 ca         1 7K1      -0.091200
     35 C35         -3.6510    -0.7690    -5.5230 ca         1 7K1       0.105400
     36 C36         -3.1410    -1.9720    -6.0170 ca         1 7K1      -0.069000
     37 C37         -3.9920    -2.9980    -6.3200 ca         1 7K1      -0.151000
     38 C38         -5.3600    -2.8600    -6.1420 ca         1 7K1      -0.118000
     39 C39         -5.8850    -1.6810    -5.6570 ca         1 7K1      -0.128000
     40 N40         -5.2290     0.6490    -4.8510 na         1 7K1      -0.258300
     41 N41         -3.0810     0.4030    -5.1410 nc         1 7K1      -0.554100
     42 H1          -2.6280    -0.0010     3.9540 ha         1 7K1       0.137000
     43 H2          -0.5040    -0.0010     5.2010 h4         1 7K1       0.022100
     44 H3           3.0640    -1.9600    -3.8510 ha         1 7K1       0.142000
     45 H4           4.4020     1.9730    -2.8670 ha         1 7K1       0.133000
     46 H5           2.9810     1.9800    -0.8580 ha         1 7K1       0.135000
     47 H6           0.3830    -2.2840    -3.6450 ha         1 7K1       0.135500
     48 H7          -0.9920    -4.2610    -3.1240 ha         1 7K1       0.132000
     49 H8          -0.7580    -5.3920    -0.9500 ha         1 7K1       0.128000
     50 H9           0.8570    -4.5600     0.7140 ha         1 7K1       0.132000
     51 H10          2.2440    -2.5870     0.2110 ha         1 7K1       0.135500
     52 H11          4.1290    -0.3680    -5.5450 hc         1 7K1       0.046033
     53 H12          5.0060     1.0310    -4.9090 hc         1 7K1       0.046033
     54 H13          5.5580    -0.6070    -4.5290 hc         1 7K1       0.046033
     55 H15         -1.3210     3.7130    -2.0940 h1         1 7K1       0.059200
     56 H16         -0.9010     4.2190    -4.4330 h1         1 7K1       0.057700
     57 H17         -1.4710     5.7040    -3.6500 h1         1 7K1       0.057700
     58 H18         -4.0400     3.6470    -6.1210 h1         1 7K1       0.068700
     59 H19         -2.4010     3.0180    -5.8760 h1         1 7K1       0.068700
     60 H20          2.7810     0.0000     1.5670 hn         1 7K1       0.305700
     61 H21         -0.3690    -0.4220    -2.0540 hc         1 7K1       0.070700
     62 H22         -1.7840    -0.5810    -1.0050 hc         1 7K1       0.070700
     63 H23         -1.7530     1.9000    -0.6650 hc         1 7K1       0.060700
     64 H24         -0.4250     2.0090    -1.8290 hc         1 7K1       0.060700
     65 H25         -2.5870    -0.0020     1.4680 ha         1 7K1       0.139000
     66 H26         -4.6680     3.0510    -3.8510 h1         1 7K1       0.061700
     67 H27         -2.0740    -2.0910    -6.1600 ha         1 7K1       0.137000
     68 H28         -3.5930    -3.9300    -6.7020 ha         1 7K1       0.128000
     69 H29         -6.0210    -3.6820    -6.3870 ha         1 7K1       0.129000
     70 H30         -6.9550    -1.5770    -5.5190 ha         1 7K1       0.123000
     71 H31         -6.1110     1.1100    -4.7410 hn         1 7K1       0.296700
     72 H14         -2.9400     4.4340    -2.1860 h1         1 7K1       0.059200
@<TRIPOS>BOND
     1    18     9 1   
     2     9     8 ar  
     3     9    10 ar  
     4    37    38 ar  
     5    37    36 ar  
     6     8     7 ar  
     7    38    39 ar  
     8    10    11 ar  
     9    36    35 ar  
    10     7    12 1   
    11     7     6 ar  
    12    39    34 ar  
    13    11     6 ar  
    14    35    34 ar  
    15    35    41 1   
    16    17    12 ar  
    17    17    16 ar  
    18    12    13 ar  
    19     6     4 1   
    20    34    40 1   
    21    16    15 ar  
    22    41    33 2   
    23    13    14 ar  
    24    15    14 ar  
    25    40    33 1   
    26    33    31 1   
    27     4    25 1   
    28     4     1 2   
    29    25    24 1   
    30    29     5 2   
    31    26     1 1   
    32    26    27 1   
    33     1    23 1   
    34     5    27 1   
    35     5    30 1   
    36    31    30 1   
    37    31    21 1   
    38    30    19 1   
    39    24    23 ar  
    40    24    22 ar  
    41    23    28 ar  
    42    19    20 1   
    43    21    32 1   
    44    22     3 ar  
    45    32    20 1   
    46    28     2 ar  
    47     3     2 ar  
    48     2    42 1   
    49     3    43 1   
    50     8    44 1   
    51    10    45 1   
    52    11    46 1   
    53    13    47 1   
    54    14    48 1   
    55    15    49 1   
    56    16    50 1   
    57    17    51 1   
    58    18    52 1   
    59    18    53 1   
    60    18    54 1   
    61    19    72 1   
    62    19    55 1   
    63    20    56 1   
    64    20    57 1   
    65    21    58 1   
    66    21    59 1   
    67    25    60 1   
    68    26    61 1   
    69    26    62 1   
    70    27    63 1   
    71    27    64 1   
    72    28    65 1   
    73    31    66 1   
    74    36    67 1   
    75    37    68 1   
    76    38    69 1   
    77    39    70 1   
    78    40    71 1   
@<TRIPOS>SUBSTRUCTURE
     1 7K1         1 TEMP              0 ****  ****    0 ROOT
