@<TRIPOS>MOLECULE
7K2
   44    45     1     0     0
SMALL
bcc


@<TRIPOS>ATOM
      1 O17          0.0000     0.0000     0.0000 oh         1 7K2      -0.567800
      2 C12          1.4290     0.0000     0.0000 c3         1 7K2       0.164100
      3 C11          1.9410     0.0000     1.4440 c3         1 7K2       0.157100
      4 O16          1.4090    -1.1290     2.1390 oh         1 7K2      -0.577800
      5 C10          3.4710    -0.0800     1.4310 c3         1 7K2       0.146100
      6 O15          4.0040     1.0820     0.7930 oh         1 7K2      -0.564800
      7 C9           3.9030    -1.3290     0.6620 c3         1 7K2       0.153100
      8 C13          3.3800    -2.5770     1.3770 c3         1 7K2       0.156400
      9 O8           3.3680    -1.2800    -0.6630 os         1 7K2      -0.365600
     10 C7           1.9410    -1.2530    -0.7150 c3         1 7K2       0.266200
     11 S1           1.3990    -1.2260    -2.4460 ss         1 7K2      -0.385200
     12 C6           1.8220    -2.8900    -3.0320 c3         1 7K2       0.093700
     13 C5           1.4220    -3.0300    -4.5020 c3         1 7K2      -0.037700
     14 C1           2.2620    -2.0760    -5.3540 c3         1 7K2       0.133800
     15 N            1.8930    -2.2260    -6.7670 n7         1 7K2      -0.575200
     16 C2           2.1630    -3.5880    -7.2460 c3         1 7K2       0.117800
     17 C3           1.3190    -4.5860    -6.4500 c3         1 7K2       0.163100
     18 O3           1.5980    -5.9130    -6.9020 oh         1 7K2      -0.590800
     19 C4           1.6650    -4.4700    -4.9630 c3         1 7K2       0.185100
     20 O4           0.8400    -5.3600    -4.2100 oh         1 7K2      -0.583800
     21 H1          -0.3140     0.8180    -0.3490 ho         1 7K2       0.393000
     22 H2           1.7960     0.8810    -0.5120 h1         1 7K2       0.040700
     23 H3           1.6320     0.9140     1.9370 h1         1 7K2       0.011700
     24 H4           0.8490    -0.8340     2.8380 ho         1 7K2       0.394000
     25 H5           3.8370    -0.1390     2.4490 h1         1 7K2       0.008700
     26 H6           4.5900     1.5250     1.3840 ho         1 7K2       0.389000
     27 H7           4.9850    -1.3630     0.6110 h1         1 7K2       0.049700
     28 H8           3.6900    -2.5540     2.4150 h1         1 7K2       0.023200
     29 H9           2.2980    -2.5970     1.3230 h1         1 7K2       0.023200
     30 H11          1.5470    -2.1340    -0.2220 h2         1 7K2       0.060700
     31 H12          2.8890    -3.0470    -2.9320 h1         1 7K2       0.049200
     32 H13          1.2920    -3.6270    -2.4410 h1         1 7K2       0.049200
     33 H14          0.3730    -2.7870    -4.6200 hc         1 7K2       0.061700
     34 H15          2.0780    -1.0560    -5.0410 h1         1 7K2       0.024200
     35 H16          3.3120    -2.3140    -5.2300 h1         1 7K2       0.024200
     36 H17          2.4090    -1.5690    -7.3180 hn         1 7K2       0.255800
     37 H19          3.2130    -3.8150    -7.1100 h1         1 7K2       0.012700
     38 H20          1.9060    -3.6570    -8.2960 h1         1 7K2       0.012700
     39 H21          0.2680    -4.3640    -6.5940 h1         1 7K2       0.025700
     40 H22          0.9330    -6.1830    -7.5130 ho         1 7K2       0.394000
     41 H23          2.7080    -4.7240    -4.8150 h1         1 7K2       0.011700
     42 H24          1.3040    -6.1670    -4.0590 ho         1 7K2       0.397000
     43 O1           3.9100    -3.7450     0.7480 oh         1 7K2      -0.582800
     44 H10          4.1600    -4.3710     1.4080 ho         1 7K2       0.386000
@<TRIPOS>BOND
     1     1     2 1   
     2     1    21 1   
     3     2     3 1   
     4     2    10 1   
     5     2    22 1   
     6     3     4 1   
     7     3     5 1   
     8     3    23 1   
     9     4    24 1   
    10     5     6 1   
    11     5     7 1   
    12     5    25 1   
    13     6    26 1   
    14     7     8 1   
    15     7     9 1   
    16     7    27 1   
    17     8    28 1   
    18     8    29 1   
    19     8    43 1   
    20     9    10 1   
    21    10    11 1   
    22    10    30 1   
    23    11    12 1   
    24    12    13 1   
    25    12    31 1   
    26    12    32 1   
    27    13    14 1   
    28    13    19 1   
    29    13    33 1   
    30    14    15 1   
    31    14    34 1   
    32    14    35 1   
    33    15    16 1   
    34    15    36 1   
    35    16    17 1   
    36    16    37 1   
    37    16    38 1   
    38    17    18 1   
    39    17    19 1   
    40    17    39 1   
    41    18    40 1   
    42    19    20 1   
    43    19    41 1   
    44    20    42 1   
    45    43    44 1   
@<TRIPOS>SUBSTRUCTURE
     1 7K2         1 TEMP              0 ****  ****    0 ROOT
