@<TRIPOS>MOLECULE
molecule
   44    45     1     0     0
SMALL
bcc


@<TRIPOS>ATOM
      1 O17          0.0000     0.0000     0.0000 oh         1 7K2      -0.589800
      2 C12          1.4290     0.0000     0.0000 c3         1 7K2       0.126100
      3 C11          1.9410     0.0000     1.4440 c3         1 7K2       0.123100
      4 O16          1.4090    -1.1290     2.1390 oh         1 7K2      -0.599800
      5 C10          3.4710    -0.0800     1.4310 c3         1 7K2       0.106100
      6 O15          4.0040     1.0820     0.7930 oh         1 7K2      -0.585800
      7 C9           3.9030    -1.3290     0.6620 c3         1 7K2       0.129100
      8 C13          3.3800    -2.5770     1.3770 c3         1 7K2       0.100400
      9 O8           3.3680    -1.2800    -0.6630 os         1 7K2      -0.383600
     10 C7           1.9410    -1.2530    -0.7150 c3         1 7K2       0.231200
     11 S1           1.3990    -1.2260    -2.4460 ss         1 7K2      -0.311200
     12 C6           1.8220    -2.8900    -3.0320 c3         1 7K2       0.021700
     13 C5           1.4220    -3.0300    -4.5020 c3         1 7K2      -0.054700
     14 C1           2.2620    -2.0760    -5.3540 c3         1 7K2       0.155800
     15 N            1.8930    -2.2260    -6.7670 n7         1 7K2      -0.821200
     16 C2           2.1630    -3.5880    -7.2460 c3         1 7K2       0.134800
     17 C3           1.3190    -4.5860    -6.4500 c3         1 7K2       0.125100
     18 O3           1.5980    -5.9130    -6.9020 oh         1 7K2      -0.611800
     19 C4           1.6650    -4.4700    -4.9630 c3         1 7K2       0.154100
     20 O4           0.8400    -5.3600    -4.2100 oh         1 7K2      -0.603800
     21 H1          -0.3140     0.8180    -0.3490 ho         1 7K2       0.406000
     22 H2           1.7960     0.8810    -0.5120 h1         1 7K2       0.073700
     23 H3           1.6320     0.9140     1.9370 h1         1 7K2       0.046700
     24 H4           0.8490    -0.8340     2.8380 ho         1 7K2       0.409000
     25 H5           3.8370    -0.1390     2.4490 h1         1 7K2       0.042700
     26 H6           4.5900     1.5250     1.3840 ho         1 7K2       0.404000
     27 H7           4.9850    -1.3630     0.6110 h1         1 7K2       0.090700
     28 H8           3.6900    -2.5540     2.4150 h1         1 7K2       0.053200
     29 H9           2.2980    -2.5970     1.3230 h1         1 7K2       0.053200
     30 H11          1.5470    -2.1340    -0.2220 h2         1 7K2       0.082700
     31 H12          2.8890    -3.0470    -2.9320 h1         1 7K2       0.074700
     32 H13          1.2920    -3.6270    -2.4410 h1         1 7K2       0.074700
     33 H14          0.3730    -2.7870    -4.6200 hc         1 7K2       0.087700
     34 H15          2.0780    -1.0560    -5.0410 h1         1 7K2       0.047700
     35 H16          3.3120    -2.3140    -5.2300 h1         1 7K2       0.047700
     36 H17          2.4090    -1.5690    -7.3180 hn         1 7K2       0.360800
     37 H19          3.2130    -3.8150    -7.1100 h1         1 7K2       0.039700
     38 H20          1.9060    -3.6570    -8.2960 h1         1 7K2       0.039700
     39 H21          0.2680    -4.3640    -6.5940 h1         1 7K2       0.060700
     40 H22          0.9330    -6.1830    -7.5130 ho         1 7K2       0.407000
     41 H23          2.7080    -4.7240    -4.8150 h1         1 7K2       0.043700
     42 H24          1.3040    -6.1670    -4.0590 ho         1 7K2       0.410000
     43 O1           3.9100    -3.7450     0.7480 oh         1 7K2      -0.603800
     44 H10          4.1600    -4.3710     1.4080 ho         1 7K2       0.399000
@<TRIPOS>BOND
     1    18    17 1
     2    16    17 1
     3    16    15 1
     4    17    19 1
     5    15    14 1
     6    19    20 1
     7    19    13 1
     8    14    13 1
     9    13    12 1
    10    12    11 1
    11    11    10 1
    12    10     9 1
    13    10     2 1
    14     9     7 1
    15     2     1 1
    16     2     3 1
    17     7     8 1
    18     7     5 1
    19     3     5 1
    20     3     4 1
    21     5     6 1
    22     1    21 1
    23     2    22 1
    24     3    23 1
    25     4    24 1
    26     5    25 1
    27     6    26 1
    28     7    27 1
    29     8    28 1
    30     8    29 1
    31    10    30 1
    32    12    31 1
    33    12    32 1
    34    13    33 1
    35    14    34 1
    36    14    35 1
    37    15    36 1
    38    16    37 1
    39    16    38 1
    40    17    39 1
    41    18    40 1
    42    19    41 1
    43    20    42 1
    44     8    43 1
    45    43    44 1
@<TRIPOS>SUBSTRUCTURE
     1 7K2         1 TEMP              0 ****  ****    0 ROOT
