@<TRIPOS>MOLECULE
molecule
   24    24     1     0     0
SMALL
bcc


@<TRIPOS>ATOM
      1 C7           0.0000     0.0000     0.0000 c3         1 7K3       0.250200
      2 C9          -0.0770     1.1650     2.0940 c3         1 7K3       0.134100
      3 C12          1.5310     0.0000     0.0000 c3         1 7K3       0.117100
      4 C13         -0.6650     2.4050     2.7700 c3         1 7K3       0.154400
      5 O17          2.0070     1.1690    -0.6700 oh         1 7K3      -0.575800
      6 C11          2.0340     0.0000     1.4480 c3         1 7K3       0.131100
      7 O16          3.4600     0.0750     1.4580 oh         1 7K3      -0.591800
      8 C10          1.4500     1.2140     2.1790 c3         1 7K3       0.114100
      9 O15          1.8540     1.1850     3.5490 oh         1 7K3      -0.604800
     10 O14         -2.0890     2.3050     2.7950 oh         1 7K3      -0.599800
     11 O8          -0.4760     1.1370     0.7220 os         1 7K3      -0.365600
     12 S1          -0.6050    -1.5160     0.7930 sh         1 7K3      -0.462900
     13 H1          -0.3590     0.0470    -1.0210 h2         1 7K3       0.092700
     14 H2          -0.4370     0.2730     2.5910 h1         1 7K3       0.084700
     15 H3           1.8910    -0.8870    -0.5070 h1         1 7K3       0.053700
     16 H4          -0.2900     2.4750     3.7850 h1         1 7K3       0.036200
     17 H5          -0.3740     3.2900     2.2170 h1         1 7K3       0.036200
     18 H6           2.2570     0.9460    -1.5520 ho         1 7K3       0.404000
     19 H7           1.7100    -0.9080     1.9420 h1         1 7K3       0.069700
     20 H8           3.8150    -0.7420     1.7650 ho         1 7K3       0.405000
     21 H9           1.8080     2.1220     1.7100 h1         1 7K3       0.071700
     22 H10          2.5200     1.8360     3.6950 ho         1 7K3       0.412000
     23 H11         -2.4460     3.0160     3.3010 ho         1 7K3       0.401000
     24 H12         -1.4960    -2.1030     0.0030 hs         1 7K3       0.233800
@<TRIPOS>BOND
     1    12     1 1   
     2     1     3 1   
     3     1    11 1   
     4     3     5 1   
     5     3     6 1   
     6    11     2 1   
     7     2     4 1   
     8     2     8 1   
     9     6     7 1   
    10     6     8 1   
    11     4    10 1   
    12     8     9 1   
    13     1    13 1   
    14     2    14 1   
    15     3    15 1   
    16     4    16 1   
    17     4    17 1   
    18     5    18 1   
    19     6    19 1   
    20     7    20 1   
    21     8    21 1   
    22     9    22 1   
    23    10    23 1   
    24    12    24 1   
@<TRIPOS>SUBSTRUCTURE
     1 7K3         1 TEMP              0 ****  ****    0 ROOT
