@<TRIPOS>MOLECULE
7K4
   44    46     1     0     0
SMALL
bcc


@<TRIPOS>ATOM
      1 C1           1.5300     0.0000     0.0000 c3         1 7K4       0.003900
      2 C2           0.0000     0.0000     0.0000 c3         1 7K4      -0.013700
      3 C3          -0.5520     0.0000     1.4430 c3         1 7K4       0.053000
      4 N4          -0.7550    -1.4130     1.7850 n          1 7K4      -0.181800
      5 C5          -0.9240    -1.9170     3.1490 c3         1 7K4       0.073000
      6 C6          -2.4100    -1.9150     3.5150 c3         1 7K4      -0.029600
      7 C8          -4.4460    -2.9620     2.8760 ca         1 7K4       0.126100
      8 C10         -6.4390    -2.3100     4.0510 ca         1 7K4      -0.088000
      9 C11         -7.1850    -3.1860     3.2840 ca         1 7K4       0.090900
     10 C13         -6.5570    -3.9630     2.3050 ca         1 7K4       0.045000
     11 C14         -7.3260    -4.8720     1.5080 cg         1 7K4       0.225800
     12 C16         -5.1820    -3.8420     2.1020 ca         1 7K4      -0.088000
     13 C19         -0.5540    -1.3340    -0.5500 c3         1 7K4      -0.124400
     14 C21         -1.9000     1.3790    -0.8680 ca         1 7K4      -0.105500
     15 C22         -2.3930     2.4520    -1.5870 ca         1 7K4      -0.094000
     16 C23         -1.5200     3.3140    -2.2260 ca         1 7K4      -0.099000
     17 C24         -0.1560     3.1030    -2.1450 ca         1 7K4      -0.094000
     18 C25          0.3360     2.0290    -1.4260 ca         1 7K4      -0.105500
     19 O7          -3.1060    -2.8420     2.6800 os         1 7K4      -0.243900
     20 C9          -5.0760    -2.1980     3.8490 ca         1 7K4      -0.172000
     21 F12         -8.5170    -3.2940     3.4840 f          1 7K4      -0.118900
     22 N15         -7.9190    -5.6030     0.8730 n1         1 7K4      -0.357800
     23 C17         -0.7660    -2.1840     0.6840 c          1 7K4       0.638500
     24 O18         -0.9230    -3.3880     0.6800 o          1 7K4      -0.659500
     25 C20         -0.5370     1.1700    -0.7830 ca         1 7K4      -0.082300
     26 H28          1.8910    -0.8800     0.5180 hc         1 7K4       0.013700
     27 H26          1.8910    -0.0090    -1.0210 hc         1 7K4       0.013700
     28 H27          1.8910     0.8890     0.5030 hc         1 7K4       0.013700
     29 H29         -1.4960     0.5300     1.4820 h1         1 7K4       0.023200
     30 H30          0.1660     0.4470     2.1190 h1         1 7K4       0.023200
     31 H32         -0.8210    -2.9960     3.1510 h1         1 7K4       0.048700
     32 H31         -0.1680    -1.4820     3.7910 h1         1 7K4       0.048700
     33 H34         -2.5650    -1.2960     4.3910 h1         1 7K4       0.088700
     34 H33         -2.9850    -1.5190     2.6870 h1         1 7K4       0.088700
     35 H36         -6.9220    -1.7070     4.8090 ha         1 7K4       0.123000
     36 H37         -4.7020    -4.3900     1.3000 ha         1 7K4       0.138000
     37 H38         -1.3440    -1.1460    -1.2660 hc         1 7K4       0.056200
     38 H39          0.2430    -1.9130    -1.0020 hc         1 7K4       0.056200
     39 H40         -2.5840     0.7030    -0.3670 ha         1 7K4       0.113500
     40 H41         -3.4610     2.6150    -1.6530 ha         1 7K4       0.104000
     41 H42         -1.9060     4.1560    -2.7890 ha         1 7K4       0.104000
     42 H43          0.5280     3.7780    -2.6460 ha         1 7K4       0.104000
     43 H44          1.4050     1.8640    -1.3630 ha         1 7K4       0.113500
     44 H35         -4.4990    -1.5090     4.4550 ha         1 7K4       0.124000
@<TRIPOS>BOND
     1     1     2 1   
     2     1    26 1   
     3     1    27 1   
     4     1    28 1   
     5     2     3 1   
     6     2    13 1   
     7     2    25 1   
     8     3     4 1   
     9     3    29 1   
    10     3    30 1   
    11     4     5 1   
    12     4    23 1   
    13     5     6 1   
    14     5    31 1   
    15     5    32 1   
    16     6    19 1   
    17     6    33 1   
    18     6    34 1   
    19     7    12 ar  
    20     7    19 1   
    21     7    20 ar  
    22     8     9 ar  
    23     8    20 ar  
    24     8    35 1   
    25     9    10 ar  
    26     9    21 1   
    27    10    11 1   
    28    10    12 ar  
    29    11    22 3   
    30    12    36 1   
    31    13    23 1   
    32    13    37 1   
    33    13    38 1   
    34    14    15 ar  
    35    14    25 ar  
    36    14    39 1   
    37    15    16 ar  
    38    15    40 1   
    39    16    17 ar  
    40    16    41 1   
    41    17    18 ar  
    42    17    42 1   
    43    18    25 ar  
    44    18    43 1   
    45    20    44 1   
    46    23    24 2   
@<TRIPOS>SUBSTRUCTURE
     1 7K4         1 TEMP              0 ****  ****    0 ROOT
