@<TRIPOS>MOLECULE
molecule
   71    75     1     0     0
SMALL
bcc


@<TRIPOS>ATOM
      1 C01          0.0000     0.0000     0.0000 ce         1 7K6      -0.097400
      2 C02          1.5310     0.0000     0.0000 c3         1 7K6       0.172300
      3 C03          1.9380     0.0000     1.5060 c3         1 7K6      -0.072400
      4 C04         -6.4070     2.5520     2.0030 c3         1 7K6       0.132400
      5 C05         -7.7940     3.1990     2.0110 c3         1 7K6      -0.083400
      6 C06         -8.6500     2.5530     3.1040 c3         1 7K6      -0.080400
      7 C07        -10.0370     3.1990     3.1130 c3         1 7K6      -0.086400
      8 C08        -10.8910     2.5540     4.2050 c3         1 7K6      -0.063400
      9 C09        -12.2780     3.2000     4.2150 c3         1 7K6      -0.183400
     10 C10          2.8320     1.5890     4.7980 ca         1 7K6       0.125100
     11 C11          3.1060     2.5640     5.7480 ca         1 7K6      -0.136000
     12 C12          2.3810     2.6040     6.9240 ca         1 7K6      -0.089500
     13 C13          1.3840     1.6730     7.1550 ca         1 7K6      -0.019900
     14 C14          1.1100     0.7000     6.2100 ca         1 7K6      -0.089500
     15 C15          1.8270     0.6610     5.0290 ca         1 7K6      -0.136000
     16 C16        -13.1220     2.5650     5.2910 c          1 7K6       0.891600
     17 O04        -14.3850     2.9760     5.4840 o          1 7K6      -0.856800
     18 O05        -12.6600     1.6860     5.9800 o          1 7K6      -0.856800
     19 Br1          0.3950     1.7300     8.7660 br         1 7K6      -0.077100
     20 S01          2.9450     2.3820     2.5170 s6         1 7K6       1.455500
     21 O06          3.9550     2.4020     1.5180 o          1 7K6      -0.615300
     22 O07          2.5230     3.5800     3.1560 o          1 7K6      -0.615300
     23 C17          1.5110     1.4230     1.9540 c3         1 7K6      -0.261900
     24 C18         -0.3730     1.2440     0.3920 cf         1 7K6      -0.061400
     25 C19          0.9260     2.0160     0.6340 c3         1 7K6       0.193300
     26 O08          1.8030     1.3960    -0.3650 os         1 7K6      -0.383600
     27 C20         -0.8880    -1.1200    -0.3590 ca         1 7K6      -0.042800
     28 C21         -1.7480     1.7490     0.5500 ca         1 7K6      -0.083800
     29 C22         -1.7180    -1.0270    -1.4800 ca         1 7K6      -0.097500
     30 C23         -2.5450    -2.0780    -1.8120 ca         1 7K6      -0.154000
     31 C24         -2.5550    -3.2290    -1.0340 ca         1 7K6       0.109100
     32 C25         -1.7330    -3.3260     0.0820 ca         1 7K6      -0.154000
     33 C26         -0.8970    -2.2830     0.4170 ca         1 7K6      -0.097500
     34 C27         -2.2200     2.7690    -0.2810 ca         1 7K6      -0.074500
     35 C28         -3.5090     3.2340    -0.1340 ca         1 7K6      -0.202500
     36 C29         -4.3380     2.6920     0.8400 ca         1 7K6       0.161100
     37 C30         -3.8730     1.6780     1.6680 ca         1 7K6      -0.202500
     38 C31         -2.5860     1.2060     1.5270 ca         1 7K6      -0.074500
     39 O03          3.5430     1.5480     3.6410 os         1 7K6      -0.458800
     40 O01         -3.3740    -4.2610    -1.3650 oh         1 7K6      -0.524100
     41 O02         -5.6080     3.1550     0.9820 os         1 7K6      -0.328900
     42 H1           2.0060    -0.7490    -0.6220 h1         1 7K6       0.111700
     43 H2           3.0070    -0.1350     1.6170 hc         1 7K6       0.062700
     44 H3           1.3910    -0.7580     2.0540 hc         1 7K6       0.062700
     45 H4          -5.9340     2.7000     2.9660 h1         1 7K6       0.035200
     46 H5          -6.5040     1.4910     1.8070 h1         1 7K6       0.035200
     47 H6          -8.2670     3.0520     1.0480 hc         1 7K6       0.052700
     48 H7          -7.6970     4.2590     2.2080 hc         1 7K6       0.052700
     49 H8          -8.7470     1.4920     2.9070 hc         1 7K6       0.040200
     50 H9          -8.1770     2.7000     4.0670 hc         1 7K6       0.040200
     51 H10        -10.5100     3.0520     2.1500 hc         1 7K6       0.032700
     52 H11         -9.9400     4.2600     3.3090 hc         1 7K6       0.032700
     53 H12        -10.4180     2.7010     5.1690 hc         1 7K6       0.045200
     54 H13        -10.9890     1.4930     4.0080 hc         1 7K6       0.045200
     55 H14        -12.7520     3.0540     3.2520 hc         1 7K6       0.027700
     56 H15        -12.1810     4.2610     4.4120 hc         1 7K6       0.027700
     57 H16          3.9250     3.2560     5.5920 ha         1 7K6       0.162000
     58 H17          2.5840     3.3730     7.6590 ha         1 7K6       0.155000
     59 H18          0.3230    -0.0230     6.3900 ha         1 7K6       0.155000
     60 H19          1.8390    -0.3990     4.8030 ha         1 7K6       0.162000
     61 H21          0.7510     1.3730     2.7240 h1         1 7K6       0.120700
     62 H22          0.8540     3.0960     0.5880 h1         1 7K6       0.114700
     63 H23         -1.7100    -0.1300    -2.0870 ha         1 7K6       0.137000
     64 H24         -3.1880    -2.0060    -2.6800 ha         1 7K6       0.141500
     65 H25         -1.7420    -4.2270     0.6840 ha         1 7K6       0.141500
     66 H26         -0.2560    -2.3600     1.2870 ha         1 7K6       0.137000
     67 H27         -1.5560     3.2320    -1.0010 ha         1 7K6       0.137000
     68 H28         -3.8770     4.0220    -0.7800 ha         1 7K6       0.144500
     69 H29         -4.5250     1.2550     2.4220 ha         1 7K6       0.144500
     70 H30         -2.3960     0.6440     2.4330 ha         1 7K6       0.137000
     71 H31         -4.1460    -4.2360    -0.8240 ho         1 7K6       0.422000
@<TRIPOS>BOND
     1    18    16 1   
     2    16     9 1   
     3    16    17 1   
     4     9     8 1   
     5     6     7 1   
     6     6     5 1   
     7     8     7 1   
     8     4     5 1   
     9     4    41 1   
    10    32    33 ar  
    11    32    31 ar  
    12    41    36 1   
    13    35    36 ar  
    14    35    34 ar  
    15    33    27 ar  
    16    40    31 1   
    17    36    37 ar  
    18    34    28 ar  
    19    31    30 ar  
    20    37    38 ar  
    21    28    38 ar  
    22    28    24 1   
    23    27     1 1   
    24    27    29 ar  
    25    24     1 2   
    26    24    25 1   
    27     1     2 1   
    28    30    29 ar  
    29    26    25 1   
    30    26     2 1   
    31    25    23 1   
    32     2     3 1   
    33    12    11 ar  
    34    12    13 ar  
    35    11    10 ar  
    36    23     3 1   
    37    23    20 1   
    38    19    13 1   
    39    13    14 ar  
    40    10    39 1   
    41    10    15 ar  
    42    39    20 1   
    43    21    20 2   
    44    20    22 2   
    45    14    15 ar  
    46     2    42 1   
    47     3    43 1   
    48     3    44 1   
    49     4    45 1   
    50     4    46 1   
    51     5    47 1   
    52     5    48 1   
    53     6    49 1   
    54     6    50 1   
    55     7    51 1   
    56     7    52 1   
    57     8    53 1   
    58     8    54 1   
    59     9    55 1   
    60     9    56 1   
    61    11    57 1   
    62    12    58 1   
    63    14    59 1   
    64    15    60 1   
    65    23    61 1   
    66    25    62 1   
    67    29    63 1   
    68    30    64 1   
    69    32    65 1   
    70    33    66 1   
    71    34    67 1   
    72    35    68 1   
    73    37    69 1   
    74    38    70 1   
    75    40    71 1   
@<TRIPOS>SUBSTRUCTURE
     1 7K6         1 TEMP              0 ****  ****    0 ROOT
