@<TRIPOS>MOLECULE
molecule
   41    43     1     0     0
SMALL
bcc


@<TRIPOS>ATOM
      1 C2           0.0000     0.0000     0.0000 c3         1 7K7       0.099800
      2 O1           0.4990    -4.4660     0.1860 o          1 7K7      -0.624300
      3 C9           2.9900    -6.4010     4.2590 ca         1 7K7      -0.015000
      4 C10          3.8840    -5.9440     3.3390 ca         1 7K7      -0.170000
      5 C4           2.2080    -1.4480     1.8140 c3         1 7K7       0.214500
      6 C3           1.9320     0.0000     1.3710 c3         1 7K7       0.085800
      7 C8           1.6290    -6.0860     4.1170 ca         1 7K7      -0.197300
      8 C7           1.2110    -5.2900     3.0180 ca         1 7K7       0.071000
      9 C6           2.1610    -4.8320     2.0940 ca         1 7K7      -0.331500
     10 C5           2.2350    -1.5020     3.3430 c3         1 7K7      -0.110100
     11 O            2.8330    -3.6040    -0.0450 o          1 7K7      -0.624300
     12 N            1.1780    -2.3810     1.3180 n3         1 7K7      -0.840500
     13 N1           1.4590     0.0000     0.0000 ny         1 7K7      -0.718000
     14 C1          -0.6210    -1.3400     0.0190 c3         1 7K7      -0.129400
     15 C           -0.2370    -2.0700     1.3310 c3         1 7K7       0.212800
     16 C11          3.4720    -5.1670     2.2580 ca         1 7K7       0.024000
     17 C12          0.6610    -6.5340     5.0290 ca         1 7K7       0.479200
     18 N2          -0.6000    -6.2140     4.8540 nb         1 7K7      -0.687000
     19 C13         -1.0180    -5.4720     3.8380 ca         1 7K7       0.461200
     20 C14         -0.1580    -4.9880     2.8980 ca         1 7K7      -0.297300
     21 H1          -0.3400     0.5190    -0.8880 hx         1 7K7       0.100700
     22 H2          -0.3400     0.5440     0.8730 hx         1 7K7       0.100700
     23 H4           4.9320    -6.1960     3.4450 ha         1 7K7       0.153000
     24 H5           3.1730    -1.7540     1.4290 h1         1 7K7       0.100700
     25 H6           1.1760     0.4360     2.0130 hx         1 7K7       0.109700
     26 H7           2.8470     0.5770     1.4360 hx         1 7K7       0.109700
     27 H8           1.2220    -1.5810     3.7200 hc         1 7K7       0.065700
     28 H9           2.8070    -2.3640     3.6640 hc         1 7K7       0.065700
     29 H10          2.6940    -0.6000     3.7290 hc         1 7K7       0.065700
     30 H11          1.7930    -0.8190    -0.4680 hn         1 7K7       0.458300
     31 H13         -1.6980    -1.2390    -0.0350 hc         1 7K7       0.097700
     32 H14         -0.2640    -1.9130    -0.8290 hc         1 7K7       0.097700
     33 H15         -0.4570    -1.4300     2.1760 h1         1 7K7       0.088200
     34 H16         -0.8060    -2.9890     1.4100 h1         1 7K7       0.088200
     35 H17          4.2060    -4.8180     1.5420 ha         1 7K7       0.156000
     36 H18          0.9540    -7.1430     5.8760 h4         1 7K7       0.041100
     37 H19         -2.0730    -5.2440     3.7510 h4         1 7K7       0.031100
     38 H20         -0.5210    -4.3840     2.0760 ha         1 7K7       0.142000
     39 H12          1.7930     0.8190    -0.4680 hn         1 7K7       0.458300
     40 S            1.6620    -3.8480     0.7210 sy         1 7K7       1.411200
     41 H3           3.3250    -7.0040     5.0940 ha         1 7K7       0.153000
@<TRIPOS>BOND
     1     6     5 1
     2     6    13 1
     3    10     5 1
     4     5    12 1
     5    13     1 1
     6    11    40 2
     7    12    40 1
     8    12    15 1
     9     1    14 1
    10    40     2 2
    11    40     9 1
    12    15    14 1
    13     9    16 ar
    14     9     8 ar
    15    16     4 ar
    16     8    20 ar
    17     8     7 ar
    18     4     3 ar
    19    20    19 ar
    20     3     7 ar
    21     7    17 ar
    22    19    18 ar
    23    17    18 ar
    24     1    21 1
    25     1    22 1
    26     3    41 1
    27     4    23 1
    28     5    24 1
    29     6    25 1
    30     6    26 1
    31    10    27 1
    32    10    28 1
    33    10    29 1
    34    13    30 1
    35    14    31 1
    36    14    32 1
    37    15    33 1
    38    15    34 1
    39    16    35 1
    40    17    36 1
    41    19    37 1
    42    20    38 1
    43    13    39 1
@<TRIPOS>SUBSTRUCTURE
     1 7K7         1 TEMP              0 ****  ****    0 ROOT
