@<TRIPOS>MOLECULE
7K7
   41    43     1     0     0
SMALL
bcc


@<TRIPOS>ATOM
      1 C2           0.0000     0.0000     0.0000 c3         1 7K7      -0.036200
      2 O1           0.4990    -4.4660     0.1860 o          1 7K7      -0.572300
      3 C9           2.9900    -6.4010     4.2590 ca         1 7K7       0.024000
      4 C10          3.8840    -5.9440     3.3390 ca         1 7K7      -0.152000
      5 C4           2.2080    -1.4480     1.8140 c3         1 7K7       0.196500
      6 C3           1.9320     0.0000     1.3710 c3         1 7K7      -0.059200
      7 C8           1.6290    -6.0860     4.1170 ca         1 7K7      -0.201300
      8 C7           1.2110    -5.2900     3.0180 ca         1 7K7       0.073000
      9 C6           2.1610    -4.8320     2.0940 ca         1 7K7      -0.177500
     10 C5           2.2350    -1.5020     3.3430 c3         1 7K7      -0.018100
     11 O            2.8330    -3.6040    -0.0450 o          1 7K7      -0.572300
     12 N            1.1780    -2.3810     1.3180 n3         1 7K7      -0.576500
     13 N1           1.4590     0.0000     0.0000 ny         1 7K7       0.058000
     14 C1          -0.6210    -1.3400     0.0190 c3         1 7K7      -0.058400
     15 C           -0.2370    -2.0700     1.3310 c3         1 7K7       0.205800
     16 C11          3.4720    -5.1670     2.2580 ca         1 7K7       0.060000
     17 C12          0.6610    -6.5340     5.0290 ca         1 7K7       0.464200
     18 N2          -0.6000    -6.2140     4.8540 nb         1 7K7      -0.579000
     19 C13         -1.0180    -5.4720     3.8380 ca         1 7K7       0.451200
     20 C14         -0.1580    -4.9880     2.8980 ca         1 7K7      -0.286300
     21 H1          -0.3400     0.5190    -0.8880 hx         1 7K7       0.076200
     22 H2          -0.3400     0.5440     0.8730 hx         1 7K7       0.076200
     23 H4           4.9320    -6.1960     3.4450 ha         1 7K7       0.123000
     24 H5           3.1730    -1.7540     1.4290 h1         1 7K7       0.073700
     25 H6           1.1760     0.4360     2.0130 hx         1 7K7       0.085700
     26 H7           2.8470     0.5770     1.4360 hx         1 7K7       0.085700
     27 H8           1.2220    -1.5810     3.7200 hc         1 7K7       0.029367
     28 H9           2.8070    -2.3640     3.6640 hc         1 7K7       0.029367
     29 H10          2.6940    -0.6000     3.7290 hc         1 7K7       0.029367
     30 H11          1.7930    -0.8190    -0.4680 hn         1 7K7       0.247300
     31 H13         -1.6980    -1.2390    -0.0350 hc         1 7K7       0.064200
     32 H14         -0.2640    -1.9130    -0.8290 hc         1 7K7       0.064200
     33 H15         -0.4570    -1.4300     2.1760 h1         1 7K7       0.055700
     34 H16         -0.8060    -2.9890     1.4100 h1         1 7K7       0.055700
     35 H17          4.2060    -4.8180     1.5420 ha         1 7K7       0.125000
     36 H18          0.9540    -7.1430     5.8760 h4         1 7K7      -0.007900
     37 H19         -2.0730    -5.2440     3.7510 h4         1 7K7      -0.016900
     38 H20         -0.5210    -4.3840     2.0760 ha         1 7K7       0.140000
     39 H12          1.7930     0.8190    -0.4680 hn         1 7K7       0.247300
     40 S            1.6620    -3.8480     0.7210 sy         1 7K7       1.056200
     41 H3           3.3250    -7.0040     5.0940 ha         1 7K7       0.117000
@<TRIPOS>BOND
     1     1    13 1   
     2     1    14 1   
     3     1    21 1   
     4     1    22 1   
     5     2    40 2   
     6     3     4 ar  
     7     3     7 ar  
     8     3    41 1   
     9     4    16 ar  
    10     4    23 1   
    11     5     6 1   
    12     5    10 1   
    13     5    12 1   
    14     5    24 1   
    15     6    13 1   
    16     6    25 1   
    17     6    26 1   
    18     7     8 ar  
    19     7    17 ar  
    20     8     9 ar  
    21     8    20 ar  
    22     9    16 ar  
    23     9    40 1   
    24    10    27 1   
    25    10    28 1   
    26    10    29 1   
    27    11    40 2   
    28    12    15 1   
    29    12    40 1   
    30    13    30 1   
    31    13    39 1   
    32    14    15 1   
    33    14    31 1   
    34    14    32 1   
    35    15    33 1   
    36    15    34 1   
    37    16    35 1   
    38    17    18 ar  
    39    17    36 1   
    40    18    19 ar  
    41    19    20 ar  
    42    19    37 1   
    43    20    38 1   
@<TRIPOS>SUBSTRUCTURE
     1 7K7         1 TEMP              0 ****  ****    0 ROOT
