@<TRIPOS>MOLECULE
7K8
   35    36     1     0     0
SMALL
bcc


@<TRIPOS>ATOM
      1 O2           0.0000     0.0000     0.0000 o          1 7K8      -0.659500
      2 C2           1.2150     0.0000     0.0000 c          1 7K8       0.618500
      3 N3           1.8640     0.0000     1.1790 ns         1 7K8      -0.045400
      4 C4           3.2530     0.0300     1.1900 c2         1 7K8       0.295900
      5 N4           3.9270    -0.4000     2.2030 n2         1 7K8      -0.511200
      6 O4           5.3410    -0.3560     2.1820 oh         1 7K8      -0.375500
      7 C5           3.9440     0.5890    -0.0380 c3         1 7K8      -0.109700
      8 C6           3.3180    -0.0830    -1.2680 c3         1 7K8       0.056000
      9 N1           1.8600    -0.0080    -1.1750 n          1 7K8      -0.178800
     10 C1'          1.0770     0.0690    -2.4110 c3         1 7K8       0.254500
     11 C2'          0.2060    -1.1930    -2.5580 c3         1 7K8      -0.114400
     12 C3'         -1.2420    -0.6490    -2.6340 c3         1 7K8       0.147100
     13 O3'         -2.0020    -1.3570    -3.6150 oh         1 7K8      -0.582800
     14 O4'          0.1890     1.1980    -2.3580 os         1 7K8      -0.345600
     15 C4'         -1.0130     0.8220    -3.0660 c3         1 7K8       0.159100
     16 C5'         -2.1890     1.7000    -2.6330 c3         1 7K8       0.282400
     17 O5'         -1.9590     3.0450    -3.0540 os         1 7K8      -0.470200
     18 P           -2.9950     4.2430    -2.7660 p5         1 7K8       0.668900
     19 OP1         -2.4790     5.5860    -3.4910 o          1 7K8      -0.756500
     20 OP2         -4.3290     3.8790    -3.2960 o          1 7K8      -0.756500
     21 OP3         -3.0980     4.4950    -1.1790 o          1 7K8      -0.756500
     22 H3           1.3520    -0.0220     2.0380 hn         1 7K8       0.193500
     23 H4           5.6770    -0.6520     3.0120 ho         1 7K8       0.403000
     24 H52          4.9840     0.2880     0.0050 hc         1 7K8       0.052200
     25 H51          3.7160     1.6470    -0.0900 hc         1 7K8       0.052200
     26 H6           3.5890    -1.1310    -1.2340 h1         1 7K8       0.022200
     27 H1           3.6150     0.4940    -2.1360 h1         1 7K8       0.022200
     28 H11          1.7360     0.1610    -3.2660 h2         1 7K8       0.006700
     29 H22          0.3230    -1.8360    -1.6940 hc         1 7K8       0.014700
     30 H21          0.4590    -1.7220    -3.4700 hc         1 7K8       0.014700
     31 H31         -1.7180    -0.6920    -1.6620 h1         1 7K8       0.042700
     32 H32         -2.5450    -1.9990    -3.1890 ho         1 7K8       0.369000
     33 H41         -0.8570     0.8820    -4.1360 h1         1 7K8       0.016700
     34 H53         -2.2840     1.6700    -1.5540 h1         1 7K8      -0.015300
     35 H54         -3.1010     1.3310    -3.0860 h1         1 7K8      -0.015300
@<TRIPOS>BOND
     1     1     2 2   
     2     2     3 1   
     3     2     9 1   
     4     3     4 1   
     5     3    22 1   
     6     4     5 2   
     7     4     7 1   
     8     5     6 1   
     9     6    23 1   
    10     7     8 1   
    11     7    24 1   
    12     7    25 1   
    13     8     9 1   
    14     8    26 1   
    15     8    27 1   
    16     9    10 1   
    17    10    11 1   
    18    10    14 1   
    19    10    28 1   
    20    11    12 1   
    21    11    29 1   
    22    11    30 1   
    23    12    13 1   
    24    12    15 1   
    25    12    31 1   
    26    13    32 1   
    27    14    15 1   
    28    15    16 1   
    29    15    33 1   
    30    16    17 1   
    31    16    34 1   
    32    16    35 1   
    33    17    18 1   
    34    18    19 1   
    35    18    20 1   
    36    18    21 1   
@<TRIPOS>SUBSTRUCTURE
     1 7K8         1 TEMP              0 ****  ****    0 ROOT
