@<TRIPOS>MOLECULE
7K9
   96    99     1     0     0
SMALL
bcc


@<TRIPOS>ATOM
      1 C29          0.0000     0.0000     0.0000 c3         1 7K9       0.045000
      2 C30          1.5300     0.0000     0.0000 c3         1 7K9      -0.074900
      3 C31          2.0410     0.0000     1.4430 c3         1 7K9       0.057000
      4 N32          3.5060     0.0000     1.4420 ns         1 7K9      -0.207400
      5 C33          4.1800     0.0000     2.6080 c          1 7K9       0.596700
      6 O53          3.5720     0.0010     3.6620 o          1 7K9      -0.629600
      7 C40          5.6550     0.0010     2.6090 ca         1 7K9      -0.172600
      8 C41          6.3580     0.0000     1.3990 ca         1 7K9      -0.083500
      9 C42          7.7350     0.0000     1.4030 ca         1 7K9      -0.108000
     10 C43          8.4310     0.0000     2.6000 ca         1 7K9      -0.112000
     11 C44          7.7510     0.0010     3.8060 ca         1 7K9       0.063600
     12 O51          8.4420     0.0010     4.9770 oh         1 7K9      -0.492600
     13 C45          6.3600     0.0070     3.8180 ca         1 7K9       0.174600
     14 O50          5.6880     0.0120     4.9980 oh         1 7K9      -0.462100
     15 H1          -0.3610    -0.8840     0.5110 h1         1 7K9       0.036700
     16 H4           1.8910     0.8840    -0.5110 hc         1 7K9       0.029950
     17 H6           1.6800     0.8850     1.9540 h1         1 7K9       0.027450
     18 H8           4.0060     0.0300     0.5750 hn         1 7K9       0.180000
     19 H13          5.7740     0.8590     5.4050 ho         1 7K9       0.411500
     20 N1          -0.4880    -0.0000    -1.3810 n          1 7K9      -0.147300
     21 C2          -0.7140    -1.1670    -2.0160 c          1 7K9       0.624200
     22 C3          -1.3190    -1.1710    -3.3610 ca         1 7K9      -0.160100
     23 C4          -0.7330     1.2680    -2.0720 c3         1 7K9       0.038500
     24 C5           0.4980     1.6450    -2.8970 c3         1 7K9      -0.053900
     25 C6           0.2430     2.9700    -3.6180 c3         1 7K9      -0.053900
     26 C7           1.4750     3.3470    -4.4440 c3         1 7K9       0.038500
     27 N2           1.2310     4.6150    -5.1350 n          1 7K9      -0.147300
     28 C9           1.5530     5.7800    -4.5390 c          1 7K9       0.624200
     29 C10          1.4210     7.0500    -5.2800 ca         1 7K9      -0.160100
     30 C11          0.6360     4.6180    -6.4740 c3         1 7K9       0.045000
     31 C12         -0.8780     4.8130    -6.3590 c3         1 7K9      -0.074900
     32 C13         -1.4990     4.8160    -7.7570 c3         1 7K9       0.057000
     33 N3          -2.9480     5.0020    -7.6470 ns         1 7K9      -0.207400
     34 C15         -3.7090     5.0370    -8.7590 c          1 7K9       0.596700
     35 C16         -5.1680     5.2250    -8.6490 ca         1 7K9      -0.172600
     36 C1          -2.5400    -0.5270    -3.5830 ca         1 7K9      -0.086500
     37 C8          -3.1040    -0.5330    -4.8400 ca         1 7K9      -0.100500
     38 C14         -2.4670    -1.1740    -5.8900 ca         1 7K9      -0.123000
     39 C17         -1.2570    -1.8160    -5.6860 ca         1 7K9       0.076100
     40 C18         -0.6730    -1.8130    -4.4230 ca         1 7K9       0.151100
     41 C19         -5.7650     5.3670    -7.3930 ca         1 7K9      -0.083500
     42 C20         -7.1280     5.5420    -7.2930 ca         1 7K9      -0.108000
     43 C21         -7.9140     5.5780    -8.4330 ca         1 7K9      -0.112000
     44 C22         -7.3370     5.4390    -9.6850 ca         1 7K9       0.063600
     45 C23         -5.9610     5.2680    -9.8010 ca         1 7K9       0.174600
     46 O1          -0.4160    -2.2180    -1.4810 o          1 7K9      -0.639600
     47 O3          -3.1930     4.9140    -9.8540 o          1 7K9      -0.629600
     48 O2           1.9530     5.7850    -3.3900 o          1 7K9      -0.639600
     49 C24          2.0620     7.2140    -6.5110 ca         1 7K9      -0.086500
     50 C25          1.9360     8.4010    -7.2000 ca         1 7K9      -0.100500
     51 C26          1.1770     9.4350    -6.6790 ca         1 7K9      -0.123000
     52 C27          0.5370     9.2880    -5.4600 ca         1 7K9       0.076100
     53 C28          0.6490     8.0930    -4.7550 ca         1 7K9       0.151100
     54 O4           0.5130    -2.4410    -4.2190 oh         1 7K9      -0.481100
     55 O5          -0.6380    -2.4430    -6.7210 oh         1 7K9      -0.481100
     56 O6          -5.3930     5.1320   -11.0260 oh         1 7K9      -0.462100
     57 O7          -8.1150     5.4760   -10.8000 oh         1 7K9      -0.492600
     58 H12         -1.5890     1.1630    -2.7270 h1         1 7K9       0.034450
     59 H14         -0.9300     2.0450    -1.3420 h1         1 7K9       0.034450
     60 H15          1.3540     1.7510    -2.2410 hc         1 7K9       0.027700
     61 H16          0.6960     0.8690    -3.6260 hc         1 7K9       0.027700
     62 H17         -0.6130     2.8650    -4.2740 hc         1 7K9       0.027700
     63 H18          0.0460     3.7460    -2.8890 hc         1 7K9       0.027700
     64 H19          1.6710     2.5710    -5.1740 h1         1 7K9       0.034450
     65 H20          2.3310     3.4510    -3.7890 h1         1 7K9       0.034450
     66 H21          0.8420     3.6740    -6.9630 h1         1 7K9       0.036700
     67 H22          1.0610     5.4270    -7.0560 h1         1 7K9       0.036700
     68 H23         -1.3030     4.0040    -5.7770 hc         1 7K9       0.029950
     69 H24         -1.0840     5.7570    -5.8700 hc         1 7K9       0.029950
     70 H25         -1.2920     3.8710    -8.2460 h1         1 7K9       0.027450
     71 H26         -1.0740     5.6240    -8.3390 h1         1 7K9       0.027450
     72 H27         -3.3690     5.1320    -6.7480 hn         1 7K9       0.180000
     73 H28         -3.0440    -0.0240    -2.7660 ha         1 7K9       0.114500
     74 H29         -4.0500    -0.0330    -5.0080 ha         1 7K9       0.109000
     75 H30         -2.9180    -1.1750    -6.8750 ha         1 7K9       0.115000
     76 H31         -5.1560     5.3390    -6.4980 ha         1 7K9       0.104000
     77 H32         -7.5870     5.6510    -6.3180 ha         1 7K9       0.107000
     78 H33         -8.9850     5.7140    -8.3460 ha         1 7K9       0.112500
     79 H34          2.6570     6.4090    -6.9240 ha         1 7K9       0.114500
     80 H35          2.4330     8.5260    -8.1540 ha         1 7K9       0.109000
     81 H36          1.0850    10.3660    -7.2260 ha         1 7K9       0.115000
     82 H39          0.3790    -3.3740    -4.2170 ho         1 7K9       0.414000
     83 H40         -1.1650    -3.1700    -7.0090 ho         1 7K9       0.400500
     84 H41         -5.4040     5.9620   -11.4720 ho         1 7K9       0.411500
     85 H42         -8.6340     4.6900   -10.8470 ho         1 7K9       0.408000
     86 O8           0.0210     7.9440    -3.5610 oh         1 7K9      -0.481100
     87 H38          0.4780     8.4400    -2.9020 ho         1 7K9       0.414000
     88 O9          -0.2060    10.3080    -4.9540 oh         1 7K9      -0.481100
     89 H2          -0.3610     0.8850     0.5110 h1         1 7K9       0.036700
     90 H3           1.8910    -0.8840    -0.5110 hc         1 7K9       0.029950
     91 H9           1.6800    -0.8850     1.9540 h1         1 7K9       0.027450
     92 H5           5.8190     0.0000     0.4600 ha         1 7K9       0.104000
     93 H7           8.2770    -0.0000     0.4640 ha         1 7K9       0.107000
     94 H10          9.5150     0.0000     2.5940 ha         1 7K9       0.112500
     95 H11          8.8510    -0.8400     5.1010 ho         1 7K9       0.408000
     96 H37          0.3560    11.0400    -4.7600 ho         1 7K9       0.400500
@<TRIPOS>BOND
     1     1     2 1   
     2     1    15 1   
     3     1    20 1   
     4     1    89 1   
     5     2     3 1   
     6     2    16 1   
     7     2    90 1   
     8     3     4 1   
     9     3    17 1   
    10     3    91 1   
    11     4     5 1   
    12     4    18 1   
    13     5     6 2   
    14     5     7 1   
    15     7     8 ar  
    16     7    13 ar  
    17     8     9 ar  
    18     8    92 1   
    19     9    10 ar  
    20     9    93 1   
    21    10    11 ar  
    22    10    94 1   
    23    11    12 1   
    24    11    13 ar  
    25    12    95 1   
    26    13    14 1   
    27    14    19 1   
    28    20    21 1   
    29    20    23 1   
    30    21    22 1   
    31    21    46 2   
    32    22    36 ar  
    33    22    40 ar  
    34    23    24 1   
    35    23    58 1   
    36    23    59 1   
    37    24    25 1   
    38    24    60 1   
    39    24    61 1   
    40    25    26 1   
    41    25    62 1   
    42    25    63 1   
    43    26    27 1   
    44    26    64 1   
    45    26    65 1   
    46    27    28 1   
    47    27    30 1   
    48    28    29 1   
    49    28    48 2   
    50    29    49 ar  
    51    29    53 ar  
    52    30    31 1   
    53    30    66 1   
    54    30    67 1   
    55    31    32 1   
    56    31    68 1   
    57    31    69 1   
    58    32    33 1   
    59    32    70 1   
    60    32    71 1   
    61    33    34 1   
    62    33    72 1   
    63    34    35 1   
    64    34    47 2   
    65    35    41 ar  
    66    35    45 ar  
    67    36    37 ar  
    68    36    73 1   
    69    37    38 ar  
    70    37    74 1   
    71    38    39 ar  
    72    38    75 1   
    73    39    40 ar  
    74    39    55 1   
    75    40    54 1   
    76    41    42 ar  
    77    41    76 1   
    78    42    43 ar  
    79    42    77 1   
    80    43    44 ar  
    81    43    78 1   
    82    44    45 ar  
    83    44    57 1   
    84    45    56 1   
    85    49    50 ar  
    86    49    79 1   
    87    50    51 ar  
    88    50    80 1   
    89    51    52 ar  
    90    51    81 1   
    91    52    53 ar  
    92    52    88 1   
    93    53    86 1   
    94    54    82 1   
    95    55    83 1   
    96    56    84 1   
    97    57    85 1   
    98    86    87 1   
    99    88    96 1   
@<TRIPOS>SUBSTRUCTURE
     1 7K9         1 TEMP              0 ****  ****    0 ROOT
