@<TRIPOS>MOLECULE
molecule
   44    47     1     0     0
SMALL
bcc


@<TRIPOS>ATOM
      1 N1           0.0000     0.0000     0.0000 na         1 7KA       0.203000
      2 N2           1.4010     0.0000     0.0000 n2         1 7KA      -0.579100
      3 C3           2.0730     0.0000     1.1020 cc         1 7KA       0.454900
      4 N4           1.4710    -0.0020     2.3360 n          1 7KA      -0.310500
      5 C5           0.1230    -0.0020     2.4420 c          1 7KA       0.742100
      6 C6          -0.6660    -0.0000     1.2100 cd         1 7KA      -0.247900
      7 C7          -2.0180    -0.0010     0.9460 cc         1 7KA      -0.095000
      8 C8          -2.1580    -0.0010    -0.4440 cc         1 7KA      -0.225000
      9 C9          -0.9140    -0.0050    -0.9900 cd         1 7KA      -0.081300
     10 O10         -0.4190    -0.0030     3.5320 o          1 7KA      -0.584500
     11 C11          2.2580    -0.0020     3.4930 ca         1 7KA       0.014600
     12 C12          2.6530     1.1990     4.0680 ca         1 7KA      -0.107500
     13 C13          3.4300     1.1950     5.2100 ca         1 7KA      -0.122000
     14 C14          3.8150    -0.0040     5.7810 ca         1 7KA      -0.111000
     15 C15          3.4230    -1.2030     5.2120 ca         1 7KA      -0.122000
     16 C16          2.6420    -1.2040     4.0740 ca         1 7KA      -0.107500
     17 C17          3.5780    -0.0000     1.0320 c3         1 7KA       0.223200
     18 N19          4.0140    -0.8110    -0.1080 nu         1 7KA      -0.888900
     19 C20          5.2670    -1.3900    -0.1050 ca         1 7KA       0.791200
     20 N21          6.0880    -1.2190     0.9280 nb         1 7KA      -0.858000
     21 C22          7.2870    -1.7680     0.9410 ca         1 7KA       0.781900
     22 N23          7.7350    -2.5070    -0.0530 nb         1 7KA      -0.849000
     23 C24          6.9870    -2.7360    -1.1300 ca         1 7KA       0.794200
     24 C25          5.6960    -2.1770    -1.1910 ca         1 7KA      -0.418600
     25 C26          4.8500    -2.3930    -2.3260 cg         1 7KA       0.253800
     26 N27          4.1640    -2.5660    -3.2140 n1         1 7KA      -0.385800
     27 N28          7.4650    -3.5160    -2.1640 nv         1 7KA      -0.981500
     28 C29          4.0800     1.4350     0.8580 c3         1 7KA      -0.105100
     29 H1          -2.8180     0.0010     1.6760 ha         1 7KA       0.167000
     30 H2          -3.0930    -0.0520    -0.9900 ha         1 7KA       0.162000
     31 H3          -0.6930    -0.0050    -2.0500 h4         1 7KA       0.178000
     32 H4           2.3520     2.1390     3.6210 ha         1 7KA       0.142500
     33 H5           3.7380     2.1310     5.6580 ha         1 7KA       0.138500
     34 H6           4.4260    -0.0050     6.6760 ha         1 7KA       0.136000
     35 H7           3.7240    -2.1400     5.6630 ha         1 7KA       0.138500
     36 H8           2.3350    -2.1430     3.6290 ha         1 7KA       0.142500
     37 H9           3.9820    -0.4160     1.9470 h1         1 7KA       0.109700
     38 H10          3.4080    -0.9350    -0.8940 hn         1 7KA       0.476800
     39 H11          7.9270    -1.6050     1.8000 h5         1 7KA       0.062100
     40 H12          6.8900    -3.6910    -2.9650 hn         1 7KA       0.451800
     41 H13          8.3850    -3.9070    -2.1130 hn         1 7KA       0.451800
     42 H14          3.3610     2.1240     1.2830 hc         1 7KA       0.055033
     43 H15          5.0320     1.5490     1.3640 hc         1 7KA       0.055033
     44 H16          4.2050     1.6490    -0.1970 hc         1 7KA       0.055033
@<TRIPOS>BOND
     1     8     9 2
     2     8     7 1
     3     9     1 1
     4     7     6 2
     5     1     6 1
     6     1     2 1
     7     6     5 1
     8    27    23 1
     9    26    25 3
    10     2     3 2
    11    25    24 1
    12    23    24 ar
    13    23    22 ar
    14     5    10 2
    15     5     4 1
    16    24    19 ar
    17    22    21 ar
    18    21    20 ar
    19    19    20 ar
    20    19    18 1
    21     3     4 1
    22     3    17 1
    23    18    17 1
    24     4    11 1
    25    17    28 1
    26    11    16 ar
    27    11    12 ar
    28    16    15 ar
    29    12    13 ar
    30    15    14 ar
    31    13    14 ar
    32     7    29 1
    33     8    30 1
    34     9    31 1
    35    12    32 1
    36    13    33 1
    37    14    34 1
    38    15    35 1
    39    16    36 1
    40    17    37 1
    41    18    38 1
    42    21    39 1
    43    27    40 1
    44    27    41 1
    45    28    42 1
    46    28    43 1
    47    28    44 1
@<TRIPOS>SUBSTRUCTURE
     1 7KA         1 TEMP              0 ****  ****    0 ROOT
