@<TRIPOS>MOLECULE
7KA
   44    47     1     0     0
SMALL
bcc


@<TRIPOS>ATOM
      1 N1           0.0000     0.0000     0.0000 na         1 7KA       0.700000
      2 N2           1.4010     0.0000     0.0000 n2         1 7KA      -0.702100
      3 C3           2.0730     0.0000     1.1020 cc         1 7KA       0.324900
      4 N4           1.4710    -0.0020     2.3360 n          1 7KA       0.126500
      5 C5           0.1230    -0.0020     2.4420 c          1 7KA       0.659100
      6 C6          -0.6660    -0.0000     1.2100 cc         1 7KA      -0.452900
      7 C7          -2.0180    -0.0010     0.9460 cd         1 7KA      -0.052000
      8 C8          -2.1580    -0.0010    -0.4440 cd         1 7KA      -0.192000
      9 C9          -0.9140    -0.0050    -0.9900 cc         1 7KA      -0.262300
     10 O10         -0.4190    -0.0030     3.5320 o          1 7KA      -0.623500
     11 C11          2.2580    -0.0020     3.4930 ca         1 7KA      -0.128400
     12 C12          2.6530     1.1990     4.0680 ca         1 7KA      -0.070500
     13 C13          3.4300     1.1950     5.2100 ca         1 7KA      -0.092500
     14 C14          3.8150    -0.0040     5.7810 ca         1 7KA      -0.073000
     15 C15          3.4230    -1.2030     5.2120 ca         1 7KA      -0.092500
     16 C16          2.6420    -1.2040     4.0740 ca         1 7KA      -0.070500
     17 C17          3.5780    -0.0000     1.0320 c3         1 7KA       0.096200
     18 N19          4.0140    -0.8110    -0.1080 nu         1 7KA      -0.468900
     19 C20          5.2670    -1.3900    -0.1050 ca         1 7KA       0.613200
     20 N21          6.0880    -1.2190     0.9280 nb         1 7KA      -0.774000
     21 C22          7.2870    -1.7680     0.9410 ca         1 7KA       0.746900
     22 N23          7.7350    -2.5070    -0.0530 nb         1 7KA      -0.760000
     23 C24          6.9870    -2.7360    -1.1300 ca         1 7KA       0.598200
     24 C25          5.6960    -2.1770    -1.1910 ca         1 7KA      -0.394600
     25 C26          4.8500    -2.3930    -2.3260 cg         1 7KA       0.255800
     26 N27          4.1640    -2.5660    -3.2140 n1         1 7KA      -0.405800
     27 N28          7.4650    -3.5160    -2.1640 nv         1 7KA      -0.480500
     28 C29          4.0800     1.4350     0.8580 c3         1 7KA      -0.011100
     29 H1          -2.8180     0.0010     1.6760 ha         1 7KA       0.135000
     30 H2          -3.0930    -0.0520    -0.9900 ha         1 7KA       0.133000
     31 H3          -0.6930    -0.0050    -2.0500 h4         1 7KA       0.152000
     32 H4           2.3520     2.1390     3.6210 ha         1 7KA       0.112000
     33 H5           3.7380     2.1310     5.6580 ha         1 7KA       0.109500
     34 H6           4.4260    -0.0050     6.6760 ha         1 7KA       0.106000
     35 H7           3.7240    -2.1400     5.6630 ha         1 7KA       0.109500
     36 H8           2.3350    -2.1430     3.6290 ha         1 7KA       0.112000
     37 H9           3.9820    -0.4160     1.9470 h1         1 7KA       0.080700
     38 H10          3.4080    -0.9350    -0.8940 hn         1 7KA       0.325800
     39 H11          7.9270    -1.6050     1.8000 h5         1 7KA      -0.005900
     40 H12          6.8900    -3.6910    -2.9650 hn         1 7KA       0.278800
     41 H13          8.3850    -3.9070    -2.1130 hn         1 7KA       0.278800
     42 H14          3.3610     2.1240     1.2830 hc         1 7KA       0.019700
     43 H15          5.0320     1.5490     1.3640 hc         1 7KA       0.019700
     44 H16          4.2050     1.6490    -0.1970 hc         1 7KA       0.019700
@<TRIPOS>BOND
     1     1     2 1   
     2     1     6 1   
     3     1     9 1   
     4     2     3 2   
     5     3     4 1   
     6     3    17 1   
     7     4     5 1   
     8     4    11 1   
     9     5     6 1   
    10     5    10 2   
    11     6     7 2   
    12     7     8 1   
    13     7    29 1   
    14     8     9 2   
    15     8    30 1   
    16     9    31 1   
    17    11    12 ar  
    18    11    16 ar  
    19    12    13 ar  
    20    12    32 1   
    21    13    14 ar  
    22    13    33 1   
    23    14    15 ar  
    24    14    34 1   
    25    15    16 ar  
    26    15    35 1   
    27    16    36 1   
    28    17    18 1   
    29    17    28 1   
    30    17    37 1   
    31    18    19 1   
    32    18    38 1   
    33    19    20 ar  
    34    19    24 ar  
    35    20    21 ar  
    36    21    22 ar  
    37    21    39 1   
    38    22    23 ar  
    39    23    24 ar  
    40    23    27 1   
    41    24    25 1   
    42    25    26 3   
    43    27    40 1   
    44    27    41 1   
    45    28    42 1   
    46    28    43 1   
    47    28    44 1   
@<TRIPOS>SUBSTRUCTURE
     1 7KA         1 TEMP              0 ****  ****    0 ROOT
