@<TRIPOS>MOLECULE
7KB
   40    42     1     0     0
SMALL
bcc


@<TRIPOS>ATOM
      1 C2           0.0000     0.0000     0.0000 ca         1 7KB       0.399200
      2 O1           4.4590     1.3570    -0.5880 o          1 7KB      -0.589300
      3 C9           1.9130    -0.0160     3.6660 ca         1 7KB      -0.012000
      4 C10          6.4110    -1.7520     0.2460 c3         1 7KB       0.221800
      5 C4           1.2630    -0.0110     2.4230 ca         1 7KB      -0.177300
      6 C3          -0.1360    -0.0050     2.3120 ca         1 7KB       0.413200
      7 C8           3.2740    -0.0210     3.7130 ca         1 7KB      -0.139000
      8 C7           4.0340    -0.0210     2.5450 ca         1 7KB      -0.070000
      9 C6           3.4370    -0.0060     1.3190 ca         1 7KB      -0.117500
     10 C5           2.0380     0.0000     1.2330 ca         1 7KB       0.061000
     11 S            4.4170     0.0070    -0.1450 sy         1 7KB       1.072200
     12 O            3.9450    -1.0610    -0.9540 o          1 7KB      -0.589300
     13 N1           5.9630    -0.3880     0.2960 n3         1 7KB      -0.520500
     14 C14          6.9220     0.6730     0.7560 c3         1 7KB       0.236800
     15 C13          7.1660     0.4380     2.1840 c3         1 7KB       0.076800
     16 N2           7.7010    -0.8870     2.4950 n7         1 7KB      -0.544200
     17 C12          6.5610    -1.7220     2.7750 c3         1 7KB       0.083800
     18 C11          6.2110    -2.5850     1.5370 c3         1 7KB      -0.040400
     19 C1           1.3620     0.0000     0.0000 ca         1 7KB      -0.167600
     20 C            2.1300     0.0000    -1.2970 c3         1 7KB      -0.106800
     21 N           -0.7000    -0.0000     1.1260 nb         1 7KB      -0.574000
     22 H1          -0.5260     0.0040    -0.9470 h4         1 7KB      -0.013900
     23 H2           1.3360    -0.0160     4.5830 ha         1 7KB       0.107000
     24 H3           5.8810    -2.2490    -0.5580 h1         1 7KB       0.033700
     25 H4           7.4680    -1.7490     0.0100 h1         1 7KB       0.033700
     26 H5          -0.7510    -0.0050     3.2040 h4         1 7KB      -0.018900
     27 H6           3.7740    -0.0340     4.6740 ha         1 7KB       0.105000
     28 H7           5.1150    -0.0260     2.6110 ha         1 7KB       0.163000
     29 H8           6.4830     1.6530     0.6140 h1         1 7KB       0.039200
     30 H9           7.8510     0.5940     0.2060 h1         1 7KB       0.039200
     31 H10          6.2300     0.5620     2.7160 h1         1 7KB       0.021200
     32 H11          7.8690     1.1820     2.5380 h1         1 7KB       0.021200
     33 H12          8.2810    -0.8300     3.3080 hn         1 7KB       0.252800
     34 H14          6.7920    -2.3730     3.6100 h1         1 7KB       0.023700
     35 H15          5.7130    -1.0970     3.0250 h1         1 7KB       0.023700
     36 H16          5.1780    -2.9040     1.6020 hc         1 7KB       0.021200
     37 H17          6.8610    -3.4520     1.5090 hc         1 7KB       0.021200
     38 H18          2.9820     0.6630    -1.2120 hc         1 7KB       0.070367
     39 H19          2.4740    -1.0040    -1.5130 hc         1 7KB       0.070367
     40 H20          1.4850     0.3410    -2.0980 hc         1 7KB       0.070367
@<TRIPOS>BOND
     1     1    19 ar  
     2     1    21 ar  
     3     1    22 1   
     4     2    11 2   
     5     3     5 ar  
     6     3     7 ar  
     7     3    23 1   
     8     4    13 1   
     9     4    18 1   
    10     4    24 1   
    11     4    25 1   
    12     5     6 ar  
    13     5    10 ar  
    14     6    21 ar  
    15     6    26 1   
    16     7     8 ar  
    17     7    27 1   
    18     8     9 ar  
    19     8    28 1   
    20     9    10 ar  
    21     9    11 1   
    22    10    19 ar  
    23    11    12 2   
    24    11    13 1   
    25    13    14 1   
    26    14    15 1   
    27    14    29 1   
    28    14    30 1   
    29    15    16 1   
    30    15    31 1   
    31    15    32 1   
    32    16    17 1   
    33    16    33 1   
    34    17    18 1   
    35    17    34 1   
    36    17    35 1   
    37    18    36 1   
    38    18    37 1   
    39    19    20 1   
    40    20    38 1   
    41    20    39 1   
    42    20    40 1   
@<TRIPOS>SUBSTRUCTURE
     1 7KB         1 TEMP              0 ****  ****    0 ROOT
