@<TRIPOS>MOLECULE
molecule
   40    42     1     0     0
SMALL
bcc


@<TRIPOS>ATOM
      1 C2           0.0000     0.0000     0.0000 ca         1 7KB       0.430200
      2 O1           4.4590     1.3570    -0.5880 o          1 7KB      -0.635800
      3 C9           1.9130    -0.0160     3.6660 ca         1 7KB      -0.044000
      4 C10          6.4110    -1.7520     0.2460 c3         1 7KB       0.234800
      5 C4           1.2630    -0.0110     2.4230 ca         1 7KB      -0.180300
      6 C3          -0.1360    -0.0050     2.3120 ca         1 7KB       0.443200
      7 C8           3.2740    -0.0210     3.7130 ca         1 7KB      -0.165000
      8 C7           4.0340    -0.0210     2.5450 ca         1 7KB      -0.053000
      9 C6           3.4370    -0.0060     1.3190 ca         1 7KB      -0.287500
     10 C5           2.0380     0.0000     1.2330 ca         1 7KB       0.065000
     11 S            4.4170     0.0070    -0.1450 sy         1 7KB       1.433200
     12 O            3.9450    -1.0610    -0.9540 o          1 7KB      -0.635800
     13 N1           5.9630    -0.3880     0.2960 n3         1 7KB      -0.815500
     14 C14          6.9220     0.6730     0.7560 c3         1 7KB       0.238800
     15 C13          7.1660     0.4380     2.1840 c3         1 7KB       0.111800
     16 N2           7.7010    -0.8870     2.4950 n7         1 7KB      -0.790200
     17 C12          6.5610    -1.7220     2.7750 c3         1 7KB       0.123800
     18 C11          6.2110    -2.5850     1.5370 c3         1 7KB      -0.097400
     19 C1           1.3620     0.0000     0.0000 ca         1 7KB      -0.197600
     20 C            2.1300     0.0000    -1.2970 c3         1 7KB      -0.119800
     21 N           -0.7000    -0.0000     1.1260 nb         1 7KB      -0.690000
     22 H1          -0.5260     0.0040    -0.9470 h4         1 7KB       0.028100
     23 H2           1.3360    -0.0160     4.5830 ha         1 7KB       0.138000
     24 H3           5.8810    -2.2490    -0.5580 h1         1 7KB       0.065200
     25 H4           7.4680    -1.7490     0.0100 h1         1 7KB       0.065200
     26 H5          -0.7510    -0.0050     3.2040 h4         1 7KB       0.026100
     27 H6           3.7740    -0.0340     4.6740 ha         1 7KB       0.132000
     28 H7           5.1150    -0.0260     2.6110 ha         1 7KB       0.170000
     29 H8           6.4830     1.6530     0.6140 h1         1 7KB       0.074700
     30 H9           7.8510     0.5940     0.2060 h1         1 7KB       0.074700
     31 H10          6.2300     0.5620     2.7160 h1         1 7KB       0.039200
     32 H11          7.8690     1.1820     2.5380 h1         1 7KB       0.039200
     33 H12          8.2810    -0.8300     3.3080 hn         1 7KB       0.357800
     34 H14          6.7920    -2.3730     3.6100 h1         1 7KB       0.039700
     35 H15          5.7130    -1.0970     3.0250 h1         1 7KB       0.039700
     36 H16          5.1780    -2.9040     1.6020 hc         1 7KB       0.053200
     37 H17          6.8610    -3.4520     1.5090 hc         1 7KB       0.053200
     38 H18          2.9820     0.6630    -1.2120 hc         1 7KB       0.078367
     39 H19          2.4740    -1.0040    -1.5130 hc         1 7KB       0.078367
     40 H20          1.4850     0.3410    -2.0980 hc         1 7KB       0.078367
@<TRIPOS>BOND
     1    18     4 1
     2    18    17 1
     3     4    13 1
     4     2    11 2
     5    17    16 1
     6    13    11 1
     7    13    14 1
     8    11    12 2
     9    11     9 1
    10    16    15 1
    11    20    19 1
    12     8     9 ar
    13     8     7 ar
    14     9    10 ar
    15    14    15 1
    16    19    10 ar
    17    19     1 ar
    18    10     5 ar
    19     7     3 ar
    20     3     5 ar
    21     5     6 ar
    22     1    21 ar
    23     6    21 ar
    24     1    22 1
    25     3    23 1
    26     4    24 1
    27     4    25 1
    28     6    26 1
    29     7    27 1
    30     8    28 1
    31    14    29 1
    32    14    30 1
    33    15    31 1
    34    15    32 1
    35    16    33 1
    36    17    34 1
    37    17    35 1
    38    18    36 1
    39    18    37 1
    40    20    38 1
    41    20    39 1
    42    20    40 1
@<TRIPOS>SUBSTRUCTURE
     1 7KB         1 TEMP              0 ****  ****    0 ROOT
