@<TRIPOS>MOLECULE
7KC
   65    69     1     0     0
SMALL
bcc


@<TRIPOS>ATOM
      1 C1           0.0000     0.0000     0.0000 ca         1 7KC      -0.292700
      2 C2           1.3960     0.0000     0.0000 ca         1 7KC       0.473100
      3 C8           1.0520     0.0010     2.2850 cc         1 7KC       0.020600
      4 C9           1.9340     0.0000     1.2970 cd         1 7KC      -0.217800
      5 C12         -2.7260    -0.0100    -2.5060 cc         1 7KC       0.495200
      6 C13         -4.1210    -0.0040    -2.6940 cc         1 7KC      -0.395600
      7 C14         -4.3590    -0.0070    -4.0230 cd         1 7KC      -0.264600
      8 N18         -6.5060     0.0070    -2.9520 n          1 7KC      -0.182800
      9 C19         -5.8470     0.0000    -4.2630 c3         1 7KC       0.146700
     10 C20         -7.8330     0.0120    -2.7140 c          1 7KC       0.626100
     11 C24        -10.1470     1.6000    -1.2780 c3         1 7KC       0.131800
     12 N25        -11.6040     1.7040    -1.1210 n3         1 7KC      -0.540600
     13 C27        -11.9960     3.0670    -0.7340 c3         1 7KC       0.181100
     14 C30        -11.4160    -1.7280     1.7950 ca         1 7KC      -0.097000
     15 C31        -10.5430    -1.4550     2.8320 ca         1 7KC      -0.097000
     16 C32         -9.4190    -0.6830     2.6060 ca         1 7KC      -0.097000
     17 C33         -9.1670    -0.1850     1.3410 ca         1 7KC      -0.092000
     18 C34         -6.2410     1.2530    -5.0480 c3         1 7KC      -0.021100
     19 C35         -6.2530    -1.2530    -5.0420 c3         1 7KC      -0.021100
     20 C29        -11.1610    -1.2340     0.5290 ca         1 7KC      -0.092000
     21 C28        -10.0320    -0.3930     0.1930 ca         1 7KC      -0.092300
     22 C23         -9.7270     0.1320    -1.1870 c3         1 7KC       0.110000
     23 C26        -12.2960     1.2850    -2.3460 c3         1 7KC       0.181100
     24 N22         -8.2900     0.0180    -1.4470 ns         1 7KC      -0.220900
     25 O21         -8.6170     0.0140    -3.6430 o          1 7KC      -0.709100
     26 C17         -5.4330     0.0040    -1.9510 c3         1 7KC       0.167300
     27 N15         -3.1660    -0.0130    -4.6580 na         1 7KC       0.510400
     28 N16         -2.1570    -0.0140    -3.6870 nd         1 7KC      -0.641800
     29 C6          -0.6780    -0.0040    -1.2310 ca         1 7KC       0.562200
     30 S7          -0.5870     0.0000     1.6560 ss         1 7KC      -0.216500
     31 N3           2.0270    -0.0010    -1.1960 nb         1 7KC      -0.638000
     32 C4           1.3520    -0.0010    -2.3180 ca         1 7KC       0.635300
     33 N5           0.0320    -0.0100    -2.3520 nb         1 7KC      -0.632000
     34 H1           1.3070     0.0010     3.3380 h4         1 7KC       0.150000
     35 H2           3.0020     0.0000     1.4790 ha         1 7KC       0.133000
     36 H3           1.9410    -0.9380    -4.1370 hc         1 7KC       0.019033
     37 H4           1.7670     0.8190    -4.2380 hc         1 7KC       0.019033
     38 H5           3.1690     0.1150    -3.4220 hc         1 7KC       0.019033
     39 H6          -9.6580     2.1650    -0.4930 h1         1 7KC       0.021700
     40 H7          -9.8590     1.9990    -2.2430 h1         1 7KC       0.021700
     41 H9         -11.6360     3.7700    -1.4760 h1         1 7KC       0.002867
     42 H10        -13.0760     3.1280    -0.6730 h1         1 7KC       0.002867
     43 H11        -11.5650     3.3060     0.2300 h1         1 7KC       0.002867
     44 H13        -10.7420    -1.8440     3.8230 ha         1 7KC       0.101000
     45 H14         -8.7350    -0.4700     3.4180 ha         1 7KC       0.104000
     46 H15         -8.2870     0.4210     1.1640 ha         1 7KC       0.093000
     47 H16         -7.2650     1.1580    -5.3880 hc         1 7KC       0.019533
     48 H17         -5.5850     1.3640    -5.9030 hc         1 7KC       0.019533
     49 H18         -6.1520     2.1230    -4.4080 hc         1 7KC       0.019533
     50 H19         -6.1810    -2.1190    -4.3960 hc         1 7KC       0.019533
     51 H20         -7.2720    -1.1460    -5.3920 hc         1 7KC       0.019533
     52 H21         -5.5920    -1.3800    -5.8910 hc         1 7KC       0.019533
     53 H22        -11.8440    -1.4470    -0.2840 ha         1 7KC       0.093000
     54 H23        -10.2730    -0.4460    -1.9220 h1         1 7KC       0.064700
     55 H24        -13.3670     1.3240    -2.1870 h1         1 7KC       0.002867
     56 H25        -12.0050     0.2720    -2.5970 h1         1 7KC       0.002867
     57 H26        -12.0280     1.9500    -3.1590 h1         1 7KC       0.002867
     58 H27         -7.6510    -0.0900    -0.6840 hn         1 7KC       0.181500
     59 H28         -5.4970     0.9200    -1.3760 h1         1 7KC       0.013200
     60 H29         -5.5060    -0.9080    -1.3720 h1         1 7KC       0.013200
     61 H30         -3.0270    -0.0150    -5.6490 hn         1 7KC       0.144700
     62 C11          2.1110    -0.0010    -3.6200 c3         1 7KC      -0.032400
     63 N10         -2.0630    -0.0050    -1.2720 nu         1 7KC      -0.369600
     64 H12        -12.2960    -2.3340     1.9730 ha         1 7KC       0.104000
     65 H31         -2.5890     0.0220    -0.4210 hn         1 7KC       0.296800
@<TRIPOS>BOND
     1     1     2 ar  
     2     1    29 ar  
     3     1    30 1   
     4     2     4 1   
     5     2    31 ar  
     6     3     4 2   
     7     3    30 1   
     8     3    34 1   
     9     4    35 1   
    10     5     6 1   
    11     5    28 2   
    12     5    63 1   
    13     6     7 2   
    14     6    26 1   
    15     7     9 1   
    16     7    27 1   
    17     8     9 1   
    18     8    10 1   
    19     8    26 1   
    20     9    18 1   
    21     9    19 1   
    22    10    24 1   
    23    10    25 2   
    24    11    12 1   
    25    11    22 1   
    26    11    39 1   
    27    11    40 1   
    28    12    13 1   
    29    12    23 1   
    30    13    41 1   
    31    13    42 1   
    32    13    43 1   
    33    14    15 ar  
    34    14    20 ar  
    35    14    64 1   
    36    15    16 ar  
    37    15    44 1   
    38    16    17 ar  
    39    16    45 1   
    40    17    21 ar  
    41    17    46 1   
    42    18    47 1   
    43    18    48 1   
    44    18    49 1   
    45    19    50 1   
    46    19    51 1   
    47    19    52 1   
    48    20    21 ar  
    49    20    53 1   
    50    21    22 1   
    51    22    24 1   
    52    22    54 1   
    53    23    55 1   
    54    23    56 1   
    55    23    57 1   
    56    24    58 1   
    57    26    59 1   
    58    26    60 1   
    59    27    28 1   
    60    27    61 1   
    61    29    33 ar  
    62    29    63 1   
    63    31    32 ar  
    64    32    33 ar  
    65    32    62 1   
    66    36    62 1   
    67    37    62 1   
    68    38    62 1   
    69    63    65 1   
@<TRIPOS>SUBSTRUCTURE
     1 7KC         1 TEMP              0 ****  ****    0 ROOT
