@<TRIPOS>MOLECULE
molecule
   65    69     1     0     0
SMALL
bcc


@<TRIPOS>ATOM
      1 C1           0.0000     0.0000     0.0000 ca         1 7KC      -0.325700
      2 C2           1.3960     0.0000     0.0000 ca         1 7KC       0.517100
      3 C8           1.0520     0.0010     2.2850 cc         1 7KC      -0.051400
      4 C9           1.9340     0.0000     1.2970 cd         1 7KC      -0.251800
      5 C12         -2.7260    -0.0100    -2.5060 cd         1 7KC       0.614200
      6 C13         -4.1210    -0.0040    -2.6940 cd         1 7KC      -0.376600
      7 C14         -4.3590    -0.0070    -4.0230 cc         1 7KC      -0.070600
      8 N18         -6.5060     0.0070    -2.9520 n          1 7KC      -0.508800
      9 C19         -5.8470     0.0000    -4.2630 c3         1 7KC       0.217700
     10 C20         -7.8330     0.0120    -2.7140 c          1 7KC       0.817100
     11 C24        -10.1470     1.6000    -1.2780 c3         1 7KC       0.147800
     12 N25        -11.6040     1.7040    -1.1210 n3         1 7KC      -0.731600
     13 C27        -11.9960     3.0670    -0.7340 c3         1 7KC       0.151600
     14 C30        -11.4160    -1.7280     1.7950 ca         1 7KC      -0.126000
     15 C31        -10.5430    -1.4550     2.8320 ca         1 7KC      -0.123000
     16 C32         -9.4190    -0.6830     2.6060 ca         1 7KC      -0.126000
     17 C33         -9.1670    -0.1850     1.3410 ca         1 7KC      -0.118500
     18 C34         -6.2410     1.2530    -5.0480 c3         1 7KC      -0.100100
     19 C35         -6.2530    -1.2530    -5.0420 c3         1 7KC      -0.100100
     20 C29        -11.1610    -1.2340     0.5290 ca         1 7KC      -0.118500
     21 C28        -10.0320    -0.3930     0.1930 ca         1 7KC      -0.085300
     22 C23         -9.7270     0.1320    -1.1870 c3         1 7KC       0.202000
     23 C26        -12.2960     1.2850    -2.3460 c3         1 7KC       0.151600
     24 N22         -8.2900     0.0180    -1.4470 ns         1 7KC      -0.596900
     25 O21         -8.6170     0.0140    -3.6430 o          1 7KC      -0.660100
     26 C17         -5.4330     0.0040    -1.9510 c3         1 7KC       0.180300
     27 N15         -3.1660    -0.0130    -4.6580 na         1 7KC      -0.015600
     28 N16         -2.1570    -0.0140    -3.6870 nc         1 7KC      -0.472800
     29 C6          -0.6780    -0.0040    -1.2310 ca         1 7KC       0.760200
     30 S7          -0.5870     0.0000     1.6560 ss         1 7KC      -0.109500
     31 N3           2.0270    -0.0010    -1.1960 nb         1 7KC      -0.751000
     32 C4           1.3520    -0.0010    -2.3180 ca         1 7KC       0.726300
     33 N5           0.0320    -0.0100    -2.3520 nb         1 7KC      -0.758000
     34 H1           1.3070     0.0010     3.3380 h4         1 7KC       0.177000
     35 H2           3.0020     0.0000     1.4790 ha         1 7KC       0.167000
     36 H3           1.9410    -0.9380    -4.1370 hc         1 7KC       0.060700
     37 H4           1.7670     0.8190    -4.2380 hc         1 7KC       0.060700
     38 H5           3.1690     0.1150    -3.4220 hc         1 7KC       0.060700
     39 H6          -9.6580     2.1650    -0.4930 h1         1 7KC       0.046700
     40 H7          -9.8590     1.9990    -2.2430 h1         1 7KC       0.046700
     41 H9         -11.6360     3.7700    -1.4760 h1         1 7KC       0.033533
     42 H10        -13.0760     3.1280    -0.6730 h1         1 7KC       0.033533
     43 H11        -11.5650     3.3060     0.2300 h1         1 7KC       0.033533
     44 H13        -10.7420    -1.8440     3.8230 ha         1 7KC       0.128000
     45 H14         -8.7350    -0.4700     3.4180 ha         1 7KC       0.132000
     46 H15         -8.2870     0.4210     1.1640 ha         1 7KC       0.117500
     47 H16         -7.2650     1.1580    -5.3880 hc         1 7KC       0.050867
     48 H17         -5.5850     1.3640    -5.9030 hc         1 7KC       0.050867
     49 H18         -6.1520     2.1230    -4.4080 hc         1 7KC       0.050867
     50 H19         -6.1810    -2.1190    -4.3960 hc         1 7KC       0.050867
     51 H20         -7.2720    -1.1460    -5.3920 hc         1 7KC       0.050867
     52 H21         -5.5920    -1.3800    -5.8910 hc         1 7KC       0.050867
     53 H22        -11.8440    -1.4470    -0.2840 ha         1 7KC       0.117500
     54 H23        -10.2730    -0.4460    -1.9220 h1         1 7KC       0.088700
     55 H24        -13.3670     1.3240    -2.1870 h1         1 7KC       0.033533
     56 H25        -12.0050     0.2720    -2.5970 h1         1 7KC       0.033533
     57 H26        -12.0280     1.9500    -3.1590 h1         1 7KC       0.033533
     58 H27         -7.6510    -0.0900    -0.6840 hn         1 7KC       0.316500
     59 H28         -5.4970     0.9200    -1.3760 h1         1 7KC       0.046200
     60 H29         -5.5060    -0.9080    -1.3720 h1         1 7KC       0.046200
     61 H30         -3.0270    -0.0150    -5.6490 hn         1 7KC       0.334700
     62 C11          2.1110    -0.0010    -3.6200 c3         1 7KC      -0.119400
     63 N10         -2.0630    -0.0050    -1.2720 nu         1 7KC      -0.845600
     64 H12        -12.2960    -2.3340     1.9730 ha         1 7KC       0.132000
     65 H31         -2.5890     0.0220    -0.4210 hn         1 7KC       0.471800
@<TRIPOS>BOND
     1    13    12 1
     2    12    23 1
     3    12    11 1
     4    11    22 1
     5    20    14 ar
     6    20    21 ar
     7    25    10 2
     8    22    21 1
     9    22    24 1
    10    14    15 ar
    11    21    17 ar
    12    10    24 1
    13    10     8 1
    14    18     9 1
    15    15    16 ar
    16    17    16 ar
    17    19     9 1
    18     8     9 1
    19     8    26 1
    20     9     7 1
    21    26     6 1
    22     7     6 2
    23     7    27 1
    24     6     5 1
    25    27    28 1
    26     5    28 2
    27     5    63 1
    28    62    32 1
    29    33    32 ar
    30    33    29 ar
    31    32    31 ar
    32    63    29 1
    33    29     1 ar
    34    31     2 ar
    35     1     2 ar
    36     1    30 1
    37     2     4 1
    38    30     3 1
    39     4     3 2
    40     3    34 1
    41     4    35 1
    42    62    36 1
    43    62    37 1
    44    62    38 1
    45    11    39 1
    46    11    40 1
    47    13    41 1
    48    13    42 1
    49    13    43 1
    50    14    64 1
    51    15    44 1
    52    16    45 1
    53    17    46 1
    54    18    47 1
    55    18    48 1
    56    18    49 1
    57    19    50 1
    58    19    51 1
    59    19    52 1
    60    20    53 1
    61    22    54 1
    62    23    55 1
    63    23    56 1
    64    23    57 1
    65    24    58 1
    66    26    59 1
    67    26    60 1
    68    27    61 1
    69    63    65 1
@<TRIPOS>SUBSTRUCTURE
     1 7KC         1 TEMP              0 ****  ****    0 ROOT
