@<TRIPOS>MOLECULE
7KD
   56    58     1     0     0
SMALL
bcc


@<TRIPOS>ATOM
      1 C1           0.0000     0.0000     0.0000 ca         1 7KD      -0.606900
      2 C2           1.3970     0.0000     0.0000 ca         1 7KD       0.640200
      3 C8          -0.7690    -0.0060    -1.2960 c3         1 7KD       0.667200
      4 C13          1.3910     0.1210     4.7090 ca         1 7KD       0.015600
      5 C14          0.2490     0.9130     4.7850 ca         1 7KD      -0.129000
      6 C15         -0.4300     1.0310     5.9760 ca         1 7KD      -0.040000
      7 C16          0.0280     0.3530     7.1100 ca         1 7KD      -0.174600
      8 C19         -0.6980     0.4760     8.3890 c          1 7KD       0.597700
      9 C22         -0.9770    -0.0560    10.7490 c3         1 7KD       0.088300
     10 C24          4.0810    -0.0010    -2.5960 ca         1 7KD       0.259300
     11 N26          4.6670    -1.1970    -4.5360 nb         1 7KD      -0.565000
     12 C27          4.9920    -0.0530    -5.1150 ca         1 7KD       0.299900
     13 N29          4.3970     1.1370    -3.1850 nb         1 7KD      -0.520000
     14 C32          2.5350    -2.9630    -2.8600 c3         1 7KD       0.271100
     15 C33          5.8490    -4.2970    -2.8910 c3         1 7KD       0.019700
     16 N20         -0.2560    -0.1780     9.4800 ns         1 7KD      -0.201900
     17 O21         -1.6960     1.1680     8.4570 o          1 7KD      -0.651100
     18 C17          1.1750    -0.4430     7.0290 ca         1 7KD      -0.040000
     19 C18          1.8490    -0.5550     5.8350 ca         1 7KD      -0.129000
     20 N12          2.0730     0.0010     3.5000 nu         1 7KD      -0.270300
     21 C4           1.3710     0.0000     2.3060 ca         1 7KD       0.765900
     22 N3           2.0410     0.0000     1.1630 nb         1 7KD      -0.760000
     23 N5           0.0470     0.0010     2.3350 nb         1 7KD      -0.739000
     24 C6          -0.6600     0.0000     1.2140 ca         1 7KD       0.587200
     25 F10         -2.1420    -0.0050    -1.0230 f          1 7KD      -0.212300
     26 F11         -0.4410     1.1320    -2.0390 f          1 7KD      -0.212300
     27 F9          -0.4410    -1.1520    -2.0280 f          1 7KD      -0.212300
     28 N7           2.1000    -0.0010    -1.1930 nu         1 7KD      -0.483900
     29 C23          3.5650    -0.0000    -1.1790 c3         1 7KD       0.117500
     30 C28          4.8490     1.1370    -4.4270 ca         1 7KD       0.287900
     31 C25          4.2170    -1.2020    -3.2880 ca         1 7KD       0.446900
     32 N30          3.8750    -2.4030    -2.6750 nh         1 7KD      -0.507200
     33 S31          4.9830    -3.1980    -1.7370 s6         1 7KD       0.962900
     34 O34          4.1940    -3.9530    -0.8270 o          1 7KD      -0.579300
     35 O35          5.8530    -2.1730    -1.2760 o          1 7KD      -0.579300
     36 H1          -0.1050     1.4380     3.9060 ha         1 7KD       0.123000
     37 H2          -1.3190     1.6480     6.0350 ha         1 7KD       0.114000
     38 H3          -0.4770    -0.6480    11.5070 h1         1 7KD       0.009033
     39 H4          -1.9920    -0.4140    10.6240 h1         1 7KD       0.009033
     40 H5          -0.9950     0.9830    11.0560 h1         1 7KD       0.009033
     41 H6           5.3600    -0.0480    -6.1340 h4         1 7KD      -0.008900
     42 H7           1.9400    -2.2850    -3.4600 h1         1 7KD       0.010367
     43 H8           2.6090    -3.9200    -3.3630 h1         1 7KD       0.010367
     44 H9           2.0640    -3.0990    -1.8940 h1         1 7KD       0.010367
     45 H10          6.4640    -4.9940    -2.3340 h1         1 7KD       0.065367
     46 H11          5.1240    -4.8460    -3.4800 h1         1 7KD       0.065367
     47 H12          6.4760    -3.7080    -3.5490 h1         1 7KD       0.065367
     48 H13          0.5720    -0.7390     9.4270 hn         1 7KD       0.175500
     49 H14          1.5330    -0.9690     7.9050 ha         1 7KD       0.114000
     50 H15          2.7380    -1.1710     5.7710 ha         1 7KD       0.123000
     51 H16          3.0720    -0.0610     3.4930 hn         1 7KD       0.296800
     52 H17         -1.7420     0.0010     1.2490 h4         1 7KD      -0.005900
     53 H18          1.6090     0.0560    -2.0630 hn         1 7KD       0.304800
     54 H19          3.9210     0.8850    -0.6660 h1         1 7KD       0.051200
     55 H20          3.9220    -0.8840    -0.6650 h1         1 7KD       0.051200
     56 H21          5.1120     2.0730    -4.9060 h4         1 7KD      -0.005900
@<TRIPOS>BOND
     1     1     2 ar  
     2     1     3 1   
     3     1    24 ar  
     4     2    22 ar  
     5     2    28 1   
     6     3    25 1   
     7     3    26 1   
     8     3    27 1   
     9     4     5 ar  
    10     4    19 ar  
    11     4    20 1   
    12     5     6 ar  
    13     5    36 1   
    14     6     7 ar  
    15     6    37 1   
    16     7     8 1   
    17     7    18 ar  
    18     8    16 1   
    19     8    17 2   
    20     9    16 1   
    21     9    38 1   
    22     9    39 1   
    23     9    40 1   
    24    10    13 ar  
    25    10    29 1   
    26    10    31 ar  
    27    11    12 ar  
    28    11    31 ar  
    29    12    30 ar  
    30    12    41 1   
    31    13    30 ar  
    32    14    32 1   
    33    14    42 1   
    34    14    43 1   
    35    14    44 1   
    36    15    33 1   
    37    15    45 1   
    38    15    46 1   
    39    15    47 1   
    40    16    48 1   
    41    18    19 ar  
    42    18    49 1   
    43    19    50 1   
    44    20    21 1   
    45    20    51 1   
    46    21    22 ar  
    47    21    23 ar  
    48    23    24 ar  
    49    24    52 1   
    50    28    29 1   
    51    28    53 1   
    52    29    54 1   
    53    29    55 1   
    54    30    56 1   
    55    31    32 1   
    56    32    33 1   
    57    33    34 2   
    58    33    35 2   
@<TRIPOS>SUBSTRUCTURE
     1 7KD         1 TEMP              0 ****  ****    0 ROOT
