@<TRIPOS>MOLECULE
molecule
   56    58     1     0     0
SMALL
bcc


@<TRIPOS>ATOM
      1 C1           0.0000     0.0000     0.0000 ca         1 7KD      -0.559900
      2 C2           1.3970     0.0000     0.0000 ca         1 7KD       0.809200
      3 C8          -0.7690    -0.0060    -1.2960 c3         1 7KD       0.691200
      4 C13          1.3910     0.1210     4.7090 ca         1 7KD       0.179600
      5 C14          0.2490     0.9130     4.7850 ca         1 7KD      -0.154000
      6 C15         -0.4300     1.0310     5.9760 ca         1 7KD      -0.069500
      7 C16          0.0280     0.3530     7.1100 ca         1 7KD      -0.167600
      8 C19         -0.6980     0.4760     8.3890 c          1 7KD       0.675700
      9 C22         -0.9770    -0.0560    10.7490 c3         1 7KD       0.104300
     10 C24          4.0810    -0.0010    -2.5960 ca         1 7KD       0.307300
     11 N26          4.6670    -1.1970    -4.5360 nb         1 7KD      -0.670000
     12 C27          4.9920    -0.0530    -5.1150 ca         1 7KD       0.312900
     13 N29          4.3970     1.1370    -3.1850 nb         1 7KD      -0.631000
     14 C32          2.5350    -2.9630    -2.8600 c3         1 7KD       0.233100
     15 C33          5.8490    -4.2970    -2.8910 c3         1 7KD      -0.239300
     16 N20         -0.2560    -0.1780     9.4800 ns         1 7KD      -0.587900
     17 O21         -1.6960     1.1680     8.4570 o          1 7KD      -0.610100
     18 C17          1.1750    -0.4430     7.0290 ca         1 7KD      -0.069500
     19 C18          1.8490    -0.5550     5.8350 ca         1 7KD      -0.154000
     20 N12          2.0730     0.0010     3.5000 nu         1 7KD      -0.745300
     21 C4           1.3710     0.0000     2.3060 ca         1 7KD       0.994900
     22 N3           2.0410     0.0000     1.1630 nb         1 7KD      -0.858000
     23 N5           0.0470     0.0010     2.3350 nb         1 7KD      -0.824000
     24 C6          -0.6600     0.0000     1.2140 ca         1 7KD       0.574200
     25 F10         -2.1420    -0.0050    -1.0230 f          1 7KD      -0.227967
     26 F11         -0.4410     1.1320    -2.0390 f          1 7KD      -0.227967
     27 F9          -0.4410    -1.1520    -2.0280 f          1 7KD      -0.227967
     28 N7           2.1000    -0.0010    -1.1930 nu         1 7KD      -0.894900
     29 C23          3.5650    -0.0000    -1.1790 c3         1 7KD       0.203500
     30 C28          4.8490     1.1370    -4.4270 ca         1 7KD       0.301900
     31 C25          4.2170    -1.2020    -3.2880 ca         1 7KD       0.546900
     32 N30          3.8750    -2.4030    -2.6750 nh         1 7KD      -0.793200
     33 S31          4.9830    -3.1980    -1.7370 s6         1 7KD       1.325900
     34 O34          4.1940    -3.9530    -0.8270 o          1 7KD      -0.620800
     35 O35          5.8530    -2.1730    -1.2760 o          1 7KD      -0.620800
     36 H1          -0.1050     1.4380     3.9060 ha         1 7KD       0.148500
     37 H2          -1.3190     1.6480     6.0350 ha         1 7KD       0.143500
     38 H3          -0.4770    -0.6480    11.5070 h1         1 7KD       0.041700
     39 H4          -1.9920    -0.4140    10.6240 h1         1 7KD       0.041700
     40 H5          -0.9950     0.9830    11.0560 h1         1 7KD       0.041700
     41 H6           5.3600    -0.0480    -6.1340 h4         1 7KD       0.037100
     42 H7           1.9400    -2.2850    -3.4600 h1         1 7KD       0.052367
     43 H8           2.6090    -3.9200    -3.3630 h1         1 7KD       0.052367
     44 H9           2.0640    -3.0990    -1.8940 h1         1 7KD       0.052367
     45 H10          6.4640    -4.9940    -2.3340 h1         1 7KD       0.101033
     46 H11          5.1240    -4.8460    -3.4800 h1         1 7KD       0.101033
     47 H12          6.4760    -3.7080    -3.5490 h1         1 7KD       0.101033
     48 H13          0.5720    -0.7390     9.4270 hn         1 7KD       0.312500
     49 H14          1.5330    -0.9690     7.9050 ha         1 7KD       0.143500
     50 H15          2.7380    -1.1710     5.7710 ha         1 7KD       0.148500
     51 H16          3.0720    -0.0610     3.4930 hn         1 7KD       0.472800
     52 H17         -1.7420     0.0010     1.2490 h4         1 7KD       0.047100
     53 H18          1.6090     0.0560    -2.0630 hn         1 7KD       0.459800
     54 H19          3.9210     0.8850    -0.6660 h1         1 7KD       0.078700
     55 H20          3.9220    -0.8840    -0.6650 h1         1 7KD       0.078700
     56 H21          5.1120     2.0730    -4.9060 h4         1 7KD       0.039100
@<TRIPOS>BOND
     1    15    33 1
     2    35    33 2
     3    33    34 2
     4    33    32 1
     5    14    32 1
     6    11    12 ar
     7    11    31 ar
     8    32    31 1
     9    27     3 1
    10    12    30 ar
    11    31    10 ar
    12    26     3 1
    13    25     3 1
    14     3     1 1
    15    30    13 ar
    16    10    13 ar
    17    10    29 1
    18    28    29 1
    19    28     2 1
    20     1     2 ar
    21     1    24 ar
    22     2    22 ar
    23    24    23 ar
    24    22    21 ar
    25    23    21 ar
    26    21    20 1
    27    19    18 ar
    28    19     4 ar
    29    20     4 1
    30    18     7 ar
    31     4     5 ar
    32     7     8 1
    33     7     6 ar
    34     5     6 ar
    35    17     8 2
    36     8    16 1
    37    16     9 1
    38     5    36 1
    39     6    37 1
    40     9    38 1
    41     9    39 1
    42     9    40 1
    43    12    41 1
    44    14    42 1
    45    14    43 1
    46    14    44 1
    47    15    45 1
    48    15    46 1
    49    15    47 1
    50    16    48 1
    51    18    49 1
    52    19    50 1
    53    20    51 1
    54    24    52 1
    55    28    53 1
    56    29    54 1
    57    29    55 1
    58    30    56 1
@<TRIPOS>SUBSTRUCTURE
     1 7KD         1 TEMP              0 ****  ****    0 ROOT
