@<TRIPOS>MOLECULE
7KF
   51    54     1     0     0
SMALL
bcc


@<TRIPOS>ATOM
      1 C4           0.0000     0.0000     0.0000 ca         1 7KF      -0.101000
      2 C5           1.3820     0.0000     0.0000 ca         1 7KF      -0.128000
      3 C6           2.0750     0.0000     1.2040 ca         1 7KF      -0.020400
      4 C8           4.1650    -0.7370     0.2680 ca         1 7KF       0.624200
      5 C10          4.1810    -2.2430    -1.4830 ca         1 7KF       0.758900
      6 C15          2.1810    -5.5230    -1.5750 c3         1 7KF      -0.032400
      7 C17          2.0650    -4.8670    -4.0270 c3         1 7KF      -0.045400
      8 C22          6.2160    -1.4260    -0.7920 ca         1 7KF       0.494600
      9 C28          1.3760    -0.0000     2.4040 ca         1 7KF      -0.088000
     10 C2          -0.0050    -0.0010     2.3970 ca         1 7KF      -0.064300
     11 C3          -0.6920    -0.0010     1.1970 ca         1 7KF      -0.094000
     12 N7           3.4720    -0.0010     1.2070 nu         1 7KF      -0.261300
     13 N9           3.5210    -1.5350    -0.5790 nb         1 7KF      -0.771000
     14 N11          3.4710    -3.0570    -2.3420 nu         1 7KF      -0.591900
     15 C12          1.9380    -3.0810    -2.2250 c3         1 7KF       0.173500
     16 C14          1.6190    -4.1560    -1.1820 c3         1 7KF      -0.028400
     17 C16          1.7470    -5.9410    -2.9840 c3         1 7KF      -0.008400
     18 C18          1.5040    -3.4990    -3.6340 c3         1 7KF      -0.081500
     19 N20          2.1290    -2.6030    -4.6070 nz         1 7KF       0.043400
     20 N21          5.5050    -2.1940    -1.5890 nb         1 7KF      -0.708000
     21 C23          7.6880    -1.1400    -0.6490 c3         1 7KF      -0.000300
     22 N24          7.8110    -0.1740     0.4510 ns         1 7KF      -0.200900
     23 C25          6.5820     0.0990     0.9240 c          1 7KF       0.682100
     24 O26          6.3300     0.8110     1.8370 o          1 7KF      -0.660500
     25 C27          5.5690    -0.6560     0.1810 ca         1 7KF      -0.537200
     26 H1          -0.5420     0.0000    -0.9380 ha         1 7KF       0.092000
     27 H2           1.9230     0.0010    -0.9380 ha         1 7KF       0.106000
     28 H5           3.1410    -4.7870    -4.1310 hc         1 7KF       0.033200
     29 H6           1.6360    -5.1620    -4.9770 hc         1 7KF       0.033200
     30 H7           1.9150     0.0090     3.3440 ha         1 7KF       0.123000
     31 H11         -1.7760    -0.0110     1.1970 ha         1 7KF       0.113000
     32 H12          3.9720     0.7930     1.5570 hn         1 7KF       0.319800
     33 H13          3.9510    -3.4890    -3.1070 hn         1 7KF       0.309800
     34 H14          1.4080    -2.1750    -1.9570 h1         1 7KF       0.082700
     35 H15          0.5440    -4.2350    -1.0780 hc         1 7KF       0.048700
     36 H16          2.0490    -3.8610    -0.2320 hc         1 7KF       0.048700
     37 H17          0.6790    -6.1220    -2.9830 hc         1 7KF       0.036200
     38 H18          2.2630    -6.8550    -3.2540 hc         1 7KF       0.036200
     39 H19          0.4270    -3.4080    -3.7080 hx         1 7KF       0.098700
     40 H20          1.9650    -1.6530    -4.3390 hn         1 7KF       0.230467
     41 H21          1.7370    -2.7680    -5.5120 hn         1 7KF       0.230467
     42 H23          8.0680    -0.7180    -1.5710 h1         1 7KF       0.039200
     43 H22          8.2160    -2.0560    -0.4140 h1         1 7KF       0.039200
     44 H24          8.6630     0.2190     0.7970 hn         1 7KF       0.216500
     45 C1          -0.7640    -0.0010     3.6990 c3         1 7KF       0.060200
     46 H3           3.2630    -5.4810    -1.5400 hc         1 7KF       0.037700
     47 H8          -0.7860     1.0030     4.1040 hc         1 7KF       0.015367
     48 H9          -1.7780    -0.3430     3.5250 hc         1 7KF       0.015367
     49 H10         -0.2750    -0.6650     4.4020 hc         1 7KF       0.015367
     50 H203         3.1070    -2.8100    -4.6710 hn         1 7KF       0.230467
     51 H4           1.8290    -6.2630    -0.8670 hc         1 7KF       0.037700
@<TRIPOS>BOND
     1     1     2 ar  
     2     1    11 ar  
     3     1    26 1   
     4     2     3 ar  
     5     2    27 1   
     6     3     9 ar  
     7     3    12 1   
     8     4    12 1   
     9     4    13 ar  
    10     4    25 ar  
    11     5    13 ar  
    12     5    14 1   
    13     5    20 ar  
    14     6    16 1   
    15     6    17 1   
    16     6    46 1   
    17     6    51 1   
    18     7    17 1   
    19     7    18 1   
    20     7    28 1   
    21     7    29 1   
    22     8    20 ar  
    23     8    21 1   
    24     8    25 ar  
    25     9    10 ar  
    26     9    30 1   
    27    10    11 ar  
    28    10    45 1   
    29    11    31 1   
    30    12    32 1   
    31    14    15 1   
    32    14    33 1   
    33    15    16 1   
    34    15    18 1   
    35    15    34 1   
    36    16    35 1   
    37    16    36 1   
    38    17    37 1   
    39    17    38 1   
    40    18    19 1   
    41    18    39 1   
    42    19    40 1   
    43    19    41 1   
    44    19    50 1   
    45    21    22 1   
    46    21    42 1   
    47    21    43 1   
    48    22    23 1   
    49    22    44 1   
    50    23    24 2   
    51    23    25 1   
    52    45    47 1   
    53    45    48 1   
    54    45    49 1   
@<TRIPOS>SUBSTRUCTURE
     1 7KF         1 TEMP              0 ****  ****    0 ROOT
