@<TRIPOS>MOLECULE
7KH
   56    60     1     0     0
SMALL
bcc


@<TRIPOS>ATOM
      1 C5           0.0000     0.0000     0.0000 c3         1 7KH       0.099800
      2 C1           0.0190     1.1290     2.1400 c3         1 7KH       0.099800
      3 C14         -6.5470     2.0760     2.6160 c3         1 7KH      -0.054400
      4 C9          -3.3840     5.4440     1.8370 cc         1 7KH       0.032400
      5 C4           1.5310     0.0000     0.0000 c3         1 7KH       0.210900
      6 C13         -7.7980     1.7440     1.7830 c3         1 7KH      -0.015400
      7 C2           1.5500     1.1180     2.1190 c3         1 7KH       0.210900
      8 C18         -3.8200     2.2680     1.3590 ca         1 7KH       0.783900
      9 N16         -4.4730     3.2840     2.0260 nh         1 7KH      -0.413300
     10 O3           2.0030     0.0000     1.3500 os         1 7KH      -0.412600
     11 N6          -0.4850     1.1610     0.7600 nh         1 7KH      -0.429300
     12 N7          -4.0580    -1.6130    -1.2890 n2         1 7KH      -0.602100
     13 C10         -3.7040     4.2940     2.7570 c3         1 7KH       0.257000
     14 C11         -6.4570     3.3600     0.5440 c3         1 7KH      -0.054400
     15 C12         -7.9040     2.8310     0.6940 c3         1 7KH      -0.015400
     16 C15         -5.9370     3.3540     2.0030 c3         1 7KH       0.150500
     17 N17         -2.4930     2.2050     1.3800 nb         1 7KH      -0.735000
     18 N19         -4.5190     1.3480     0.7010 nb         1 7KH      -0.743000
     19 C20         -3.8900     0.3660     0.0620 ca         1 7KH       0.602700
     20 N21         -2.5630     0.3030     0.0840 nb         1 7KH      -0.778000
     21 C22         -1.8640     1.2260     0.7380 ca         1 7KH       0.778900
     22 N23         -2.3460     5.5060     1.0000 nc         1 7KH      -0.210600
     23 C24         -2.3790     6.6610     0.3500 cd         1 7KH      -0.255300
     24 N25         -3.4740     7.3610     0.7850 na         1 7KH       0.626700
     25 C26         -4.1010     6.5820     1.7190 cd         1 7KH      -0.438100
     26 C27         -3.7510     8.5970     0.2760 cc         1 7KH      -0.284300
     27 C28         -2.9540     9.1480    -0.6620 cd         1 7KH      -0.079000
     28 C29         -1.8260     8.4550    -1.1300 cc         1 7KH      -0.138000
     29 C30         -1.5370     7.2230    -0.6300 cd         1 7KH      -0.016000
     30 H1          -0.3610    -0.9100     0.4640 h1         1 7KH       0.034700
     31 H2          -0.3600     0.0600    -1.0200 h1         1 7KH       0.034700
     32 H3          -5.7520    -0.6210    -0.6700 h4         1 7KH       0.000800
     33 H4          -0.3410     0.2350     2.6350 h1         1 7KH       0.034700
     34 H5          -0.3280     2.0070     2.6710 h1         1 7KH       0.034700
     35 H6          -6.8260     2.2570     3.6470 hc         1 7KH       0.031700
     36 H7          -5.8360     1.2610     2.5550 hc         1 7KH       0.031700
     37 H8           1.8910    -0.8860    -0.5080 h1         1 7KH       0.015450
     38 H9           1.8910     0.8860    -0.5080 h1         1 7KH       0.015450
     39 H10         -7.6890     0.7690     1.3240 hc         1 7KH       0.012700
     40 H11         -8.6790     1.7660     2.4140 hc         1 7KH       0.012700
     41 H12          1.9250     1.0350     3.1320 h1         1 7KH       0.015450
     42 H13          1.9110     2.0350     1.6680 h1         1 7KH       0.015450
     43 H14         -3.0580    -1.6600    -1.2730 hn         1 7KH       0.334400
     44 H15         -4.2860     4.6540     3.5960 h1         1 7KH       0.038700
     45 H16         -2.7830     3.8540     3.1190 h1         1 7KH       0.038700
     46 H17         -5.8680     2.6940    -0.0740 hc         1 7KH       0.031700
     47 H18         -6.4580     4.3670     0.1440 hc         1 7KH       0.031700
     48 H19         -8.2460     2.3990    -0.2390 hc         1 7KH       0.012700
     49 H20         -8.5650     3.6260     1.0170 hc         1 7KH       0.012700
     50 H21         -6.2890     4.2300     2.5330 h1         1 7KH       0.036700
     51 H22         -4.9140     6.8920     2.3640 h4         1 7KH       0.160000
     52 H23         -4.6190     9.1400     0.6300 h4         1 7KH       0.137000
     53 H24         -3.1870    10.1300    -1.0580 ha         1 7KH       0.116000
     54 H25         -1.1870     8.9000    -1.8840 ha         1 7KH       0.117000
     55 H26         -0.6690     6.6790    -0.9830 ha         1 7KH       0.125000
     56 C8          -4.6690    -0.6590    -0.6710 ce         1 7KH       0.335200
@<TRIPOS>BOND
     1     1     5 1   
     2     1    11 1   
     3     1    30 1   
     4     1    31 1   
     5     2     7 1   
     6     2    11 1   
     7     2    33 1   
     8     2    34 1   
     9     3     6 1   
    10     3    16 1   
    11     3    35 1   
    12     3    36 1   
    13     4    13 1   
    14     4    22 1   
    15     4    25 2   
    16     5    10 1   
    17     5    37 1   
    18     5    38 1   
    19     6    15 1   
    20     6    39 1   
    21     6    40 1   
    22     7    10 1   
    23     7    41 1   
    24     7    42 1   
    25     8     9 1   
    26     8    17 ar  
    27     8    18 ar  
    28     9    13 1   
    29     9    16 1   
    30    11    21 1   
    31    12    43 1   
    32    12    56 2   
    33    13    44 1   
    34    13    45 1   
    35    14    15 1   
    36    14    16 1   
    37    14    46 1   
    38    14    47 1   
    39    15    48 1   
    40    15    49 1   
    41    16    50 1   
    42    17    21 ar  
    43    18    19 ar  
    44    19    20 ar  
    45    19    56 1   
    46    20    21 ar  
    47    22    23 2   
    48    23    24 1   
    49    23    29 1   
    50    24    25 1   
    51    24    26 1   
    52    25    51 1   
    53    26    27 2   
    54    26    52 1   
    55    27    28 1   
    56    27    53 1   
    57    28    29 2   
    58    28    54 1   
    59    29    55 1   
    60    32    56 1   
@<TRIPOS>SUBSTRUCTURE
     1 7KH         1 TEMP              0 ****  ****    0 ROOT
