@<TRIPOS>MOLECULE
molecule
   56    60     1     0     0
SMALL
bcc


@<TRIPOS>ATOM
      1 C5           0.0000     0.0000     0.0000 c3         1 7KH       0.137800
      2 C1           0.0190     1.1290     2.1400 c3         1 7KH       0.137800
      3 C14         -6.5470     2.0760     2.6160 c3         1 7KH      -0.096400
      4 C9          -3.3840     5.4440     1.8370 cc         1 7KH       0.053400
      5 C4           1.5310     0.0000     0.0000 c3         1 7KH       0.134400
      6 C13         -7.7980     1.7440     1.7830 c3         1 7KH      -0.077900
      7 C2           1.5500     1.1180     2.1190 c3         1 7KH       0.134400
      8 C18         -3.8200     2.2680     1.3590 ca         1 7KH       0.990900
      9 N16         -4.4730     3.2840     2.0260 nh         1 7KH      -0.789300
     10 O3           2.0030     0.0000     1.3500 os         1 7KH      -0.427600
     11 N6          -0.4850     1.1610     0.7600 nh         1 7KH      -0.675300
     12 N7          -4.0580    -1.6130    -1.2890 n2         1 7KH      -0.740100
     13 C10         -3.7040     4.2940     2.7570 c3         1 7KH       0.326000
     14 C11         -6.4570     3.3600     0.5440 c3         1 7KH      -0.096400
     15 C12         -7.9040     2.8310     0.6940 c3         1 7KH      -0.077900
     16 C15         -5.9370     3.3540     2.0030 c3         1 7KH       0.251500
     17 N17         -2.4930     2.2050     1.3800 nb         1 7KH      -0.837000
     18 N19         -4.5190     1.3480     0.7010 nb         1 7KH      -0.856000
     19 C20         -3.8900     0.3660     0.0620 ca         1 7KH       0.720700
     20 N21         -2.5630     0.3030     0.0840 nb         1 7KH      -0.827000
     21 C22         -1.8640     1.2260     0.7380 ca         1 7KH       0.928900
     22 N23         -2.3460     5.5060     1.0000 nc         1 7KH      -0.282600
     23 C24         -2.3790     6.6610     0.3500 cd         1 7KH      -0.029300
     24 N25         -3.4740     7.3610     0.7850 na         1 7KH       0.047700
     25 C26         -4.1010     6.5820     1.7190 cd         1 7KH      -0.244100
     26 C27         -3.7510     8.5970     0.2760 cc         1 7KH      -0.085300
     27 C28         -2.9540     9.1480    -0.6620 cd         1 7KH      -0.157000
     28 C29         -1.8260     8.4550    -1.1300 cc         1 7KH      -0.134000
     29 C30         -1.5370     7.2230    -0.6300 cd         1 7KH      -0.077000
     30 H1          -0.3610    -0.9100     0.4640 h1         1 7KH       0.065200
     31 H2          -0.3600     0.0600    -1.0200 h1         1 7KH       0.065200
     32 H3          -5.7520    -0.6210    -0.6700 h4         1 7KH      -0.015200
     33 H4          -0.3280     2.0070     2.6710 h1         1 7KH       0.065200
     34 H5          -0.3410     0.2350     2.6350 h1         1 7KH       0.065200
     35 H6          -5.8360     1.2610     2.5550 hc         1 7KH       0.058950
     36 H7          -6.8260     2.2570     3.6470 hc         1 7KH       0.058950
     37 H8           1.8910     0.8860    -0.5080 h1         1 7KH       0.056450
     38 H9           1.8910    -0.8860    -0.5080 h1         1 7KH       0.056450
     39 H10         -7.6890     0.7690     1.3240 hc         1 7KH       0.040700
     40 H11         -8.6790     1.7660     2.4140 hc         1 7KH       0.040700
     41 H12          1.9110     2.0350     1.6680 h1         1 7KH       0.056450
     42 H13          1.9250     1.0350     3.1320 h1         1 7KH       0.056450
     43 H14         -4.5830    -2.3060    -1.7850 hn         1 7KH       0.402400
     44 H15         -4.2860     4.6540     3.5960 h1         1 7KH       0.072200
     45 H16         -2.7830     3.8540     3.1190 h1         1 7KH       0.072200
     46 H17         -6.4580     4.3670     0.1440 hc         1 7KH       0.058950
     47 H18         -5.8680     2.6940    -0.0740 hc         1 7KH       0.058950
     48 H19         -8.2460     2.3990    -0.2390 hc         1 7KH       0.040700
     49 H20         -8.5650     3.6260     1.0170 hc         1 7KH       0.040700
     50 H21         -6.2890     4.2300     2.5330 h1         1 7KH       0.060700
     51 H22         -4.9140     6.8920     2.3640 h4         1 7KH       0.175000
     52 H23         -4.6190     9.1400     0.6300 h4         1 7KH       0.158000
     53 H24         -3.1870    10.1300    -1.0580 ha         1 7KH       0.148000
     54 H25         -1.1870     8.9000    -1.8840 ha         1 7KH       0.143000
     55 H26         -0.6690     6.6790    -0.9830 ha         1 7KH       0.163000
     56 C8          -4.6690    -0.6590    -0.6710 ce         1 7KH       0.385200
@<TRIPOS>BOND
     1    12    56 2
     2    56    19 1
     3    19    20 ar
     4    19    18 ar
     5    20    21 ar
     6     1     5 1
     7     1    11 1
     8     5    10 1
     9    18     8 ar
    10    21    11 1
    11    21    17 ar
    12    11     2 1
    13    10     7 1
    14     8    17 ar
    15     8     9 1
    16     2     7 1
    17     3     6 1
    18     3    16 1
    19     6    15 1
    20    16     9 1
    21    16    14 1
    22     9    13 1
    23    15    14 1
    24    13     4 1
    25    25     4 2
    26    25    24 1
    27     4    22 1
    28    24    26 1
    29    24    23 1
    30    26    27 2
    31    22    23 2
    32    23    29 1
    33    27    28 1
    34    29    28 2
    35     1    30 1
    36     1    31 1
    37    56    32 1
    38     2    33 1
    39     2    34 1
    40     3    35 1
    41     3    36 1
    42     5    37 1
    43     5    38 1
    44     6    39 1
    45     6    40 1
    46     7    41 1
    47     7    42 1
    48    12    43 1
    49    13    44 1
    50    13    45 1
    51    14    46 1
    52    14    47 1
    53    15    48 1
    54    15    49 1
    55    16    50 1
    56    25    51 1
    57    26    52 1
    58    27    53 1
    59    28    54 1
    60    29    55 1
@<TRIPOS>SUBSTRUCTURE
     1 7KH         1 TEMP              0 ****  ****    0 ROOT
