@<TRIPOS>MOLECULE
7KK
   43    46     1     0     0
SMALL
bcc


@<TRIPOS>ATOM
      1 C13          0.0000     0.0000     0.0000 ca         1 7KK      -0.034100
      2 C15          0.0040     0.0000     2.4000 ca         1 7KK       0.070600
      3 C17          2.0820     0.0000     1.2020 ca         1 7KK      -0.034100
      4 C22         -1.3370     2.6750     3.6910 ca         1 7KK      -0.168500
      5 C26          0.0850     4.4300     4.4970 ca         1 7KK      -0.119000
      6 C28         -1.2640     4.7790     2.5470 ca         1 7KK       0.096900
      7 C01          3.9600     5.0300    -4.4590 ca         1 7KK      -0.105000
      8 C02          4.3580     3.8850    -5.1490 ca         1 7KK      -0.085000
      9 C03          4.0780     2.6450    -4.6630 ca         1 7KK      -0.093000
     10 C04          3.3790     2.5150    -3.4510 ca         1 7KK      -0.109300
     11 C05          2.9730     3.6770    -2.7490 ca         1 7KK       0.339600
     12 C06          3.2810     4.9410    -3.2840 ca         1 7KK      -0.127300
     13 C07          3.0710     1.2510    -2.9170 ca         1 7KK      -0.102000
     14 C08          2.3860     1.2000    -1.7310 ca         1 7KK       0.015800
     15 C09          2.0160     2.3880    -1.0900 ca         1 7KK       0.330200
     16 N10          2.3080     3.5610    -1.5950 nb         1 7KK      -0.528000
     17 C12          1.3880     0.0000     0.0000 ca         1 7KK       0.088100
     18 C14         -0.6910     0.0000     1.1970 ca         1 7KK      -0.131500
     19 C16          1.3920    -0.0000     2.3990 ca         1 7KK      -0.131500
     20 Cl1          3.8180    -0.0010     1.2000 cl         1 7KK       0.019600
     21 Cl2         -0.8680     0.0080    -1.5030 cl         1 7KK       0.019600
     22 N20         -0.6960    -0.0000     3.6120 nu         1 7KK      -0.395500
     23 S21         -1.9680     1.0360     3.8340 sy         1 7KK       1.046200
     24 O23         -2.3810     0.8820     5.1840 o          1 7KK      -0.571300
     25 O24         -2.8400     0.8450     2.7270 o          1 7KK      -0.571300
     26 C25         -0.4120     3.1430     4.6090 ca         1 7KK       0.198900
     27 C27         -0.3430     5.2490     3.4690 ca         1 7KK       0.051100
     28 C29         -1.7610     3.4920     2.6590 ca         1 7KK       0.001000
     29 F30          0.0060     2.3430     5.6130 f          1 7KK      -0.112900
     30 Br1          0.3350     7.0080     3.3160 br         1 7KK      -0.057100
     31 F32         -1.6790     5.5780     1.5390 f          1 7KK      -0.109900
     32 H1           0.8070     4.7970     5.2170 ha         1 7KK       0.141000
     33 H3           4.8980     3.9840    -6.0830 ha         1 7KK       0.103000
     34 H4           4.3930     1.7630    -5.2070 ha         1 7KK       0.109000
     35 H5           2.9800     5.8410    -2.7610 ha         1 7KK       0.116000
     36 H6           3.3670     0.3430    -3.4290 ha         1 7KK       0.127000
     37 H7           1.4750     2.3360    -0.1530 h4         1 7KK      -0.009900
     38 H8          -1.7750     0.0000     1.1980 ha         1 7KK       0.153000
     39 H9           1.9350    -0.0000     3.3370 ha         1 7KK       0.153000
     40 H10         -0.4550    -0.6560     4.3280 hn         1 7KK       0.357800
     41 H11         -2.4820     3.1250     1.9380 ha         1 7KK       0.153000
     42 O11          2.0680     0.0010    -1.1780 os         1 7KK      -0.201200
     43 H2           4.1950     6.0060    -4.8660 ha         1 7KK       0.104000
@<TRIPOS>BOND
     1     1    17 ar  
     2     1    18 ar  
     3     1    21 1   
     4     2    18 ar  
     5     2    19 ar  
     6     2    22 1   
     7     3    17 ar  
     8     3    19 ar  
     9     3    20 1   
    10     4    23 1   
    11     4    26 ar  
    12     4    28 ar  
    13     5    26 ar  
    14     5    27 ar  
    15     5    32 1   
    16     6    27 ar  
    17     6    28 ar  
    18     6    31 1   
    19     7     8 ar  
    20     7    12 ar  
    21     7    43 1   
    22     8     9 ar  
    23     8    33 1   
    24     9    10 ar  
    25     9    34 1   
    26    10    11 ar  
    27    10    13 ar  
    28    11    12 ar  
    29    11    16 ar  
    30    12    35 1   
    31    13    14 ar  
    32    13    36 1   
    33    14    15 ar  
    34    14    42 1   
    35    15    16 ar  
    36    15    37 1   
    37    17    42 1   
    38    18    38 1   
    39    19    39 1   
    40    22    23 1   
    41    22    40 1   
    42    23    24 2   
    43    23    25 2   
    44    26    29 1   
    45    27    30 1   
    46    28    41 1   
@<TRIPOS>SUBSTRUCTURE
     1 7KK         1 TEMP              0 ****  ****    0 ROOT
