@<TRIPOS>MOLECULE
molecule
   56    60     1     0     0
SMALL
bcc


@<TRIPOS>ATOM
      1 C19          0.0000     0.0000     0.0000 ce         1 7KL      -0.188200
      2 C16          1.4680     0.0000     0.0000 ca         1 7KL       0.007200
      3 C17          2.1700     0.0000     1.2130 ca         1 7KL      -0.146500
      4 C18          3.5340    -0.0000     1.2120 ca         1 7KL      -0.104000
      5 C15          2.1680    -0.0060    -1.2140 ca         1 7KL      -0.146500
      6 C14          3.5330    -0.0060    -1.2150 ca         1 7KL      -0.104000
      7 C08          4.2340    -0.0000    -0.0020 ca         1 7KL      -0.107800
      8 C05          5.7040    -0.0000    -0.0020 ce         1 7KL      -0.048400
      9 C01          6.5220    -0.9830     0.4550 cf         1 7KL      -0.112400
     10 C07          6.1190    -2.2660     1.0540 ca         1 7KL      -0.034800
     11 C09          5.4340    -3.2140     0.2870 ca         1 7KL      -0.097500
     12 C10          5.0590    -4.4130     0.8520 ca         1 7KL      -0.152500
     13 C11          5.3590    -4.6810     2.1810 ca         1 7KL       0.105100
     14 O02          4.9870    -5.8650     2.7340 oh         1 7KL      -0.530100
     15 C12          6.0390    -3.7430     2.9480 ca         1 7KL      -0.152500
     16 C13          6.4250    -2.5440     2.3910 ca         1 7KL      -0.097500
     17 C02          7.9500    -0.4830     0.2210 c3         1 7KL       0.170300
     18 C03          8.1680     0.6400     1.2820 c3         1 7KL      -0.065400
     19 O01          7.7640     0.3130    -0.9970 os         1 7KL      -0.381600
     20 C06          6.6260     1.1040    -0.5250 c3         1 7KL       0.187300
     21 C04          7.2340     1.7620     0.7600 c3         1 7KL      -0.265900
     22 S01          8.1810     3.2510     0.3390 s6         1 7KL       1.453500
     23 O06          8.5500     3.9560     1.5170 o          1 7KL      -0.621300
     24 O07          9.1370     2.9640    -0.6730 o          1 7KL      -0.621300
     25 O03          7.1720     4.1630    -0.3430 os         1 7KL      -0.451800
     26 C21          6.3060     4.7670     0.5110 ca         1 7KL       0.095100
     27 H1          -0.5420     0.0000    -0.9380 ha         1 7KL       0.157000
     28 H4           1.6290    -0.0000     2.1520 ha         1 7KL       0.141500
     29 H5           4.0760     0.0020     2.1500 ha         1 7KL       0.121500
     30 H6           1.6260    -0.0100    -2.1520 ha         1 7KL       0.141500
     31 H7           4.0750    -0.0080    -2.1530 ha         1 7KL       0.121500
     32 H10          4.1260    -5.7810     3.1090 ho         1 7KL       0.422000
     33 H11          6.2740    -3.9580     3.9830 ha         1 7KL       0.139000
     34 H12          6.9550    -1.8140     2.9890 ha         1 7KL       0.137500
     35 H13          8.7180    -1.2450     0.1700 h1         1 7KL       0.107700
     36 H14          7.8600     0.3070     2.2660 hc         1 7KL       0.060200
     37 H15          9.2000     0.9690     1.2900 hc         1 7KL       0.060200
     38 H16          6.1930     1.7840    -1.2500 h1         1 7KL       0.116700
     39 H17          6.4580     1.9860     1.4830 h1         1 7KL       0.119700
     40 C1          -0.6760     0.0000     1.1710 cf         1 7KL      -0.120200
     41 C2          -2.0940     0.0000     1.1710 c          1 7KL       0.856800
     42 O1          -2.7030    -0.0010     0.1180 o          1 7KL      -0.837300
     43 O2          -2.7680    -0.0010     2.3400 o          1 7KL      -0.837300
     44 H2          -0.1340     0.0000     2.1090 ha         1 7KL       0.104000
     45 C3           6.6250     5.9960     1.0700 ca         1 7KL      -0.099000
     46 C4           5.7430     6.6100     1.9380 ca         1 7KL      -0.112000
     47 C5           4.5430     5.9980     2.2530 ca         1 7KL      -0.113000
     48 C6           4.2230     4.7720     1.6980 ca         1 7KL       0.038400
     49 C7           5.1000     4.1580     0.8230 ca         1 7KL      -0.140000
     50 Cl1          2.7150     4.0080     2.0940 cl         1 7KL      -0.062400
     51 H8           5.2000    -3.0060    -0.7490 ha         1 7KL       0.137500
     52 H9           4.5280    -5.1470     0.2580 ha         1 7KL       0.139000
     53 H3           7.5640     6.4760     0.8240 ha         1 7KL       0.153000
     54 H18          5.9920     7.5700     2.3740 ha         1 7KL       0.143000
     55 H19          3.8540     6.4790     2.9360 ha         1 7KL       0.150000
     56 H20          4.8490     3.1980     0.3880 ha         1 7KL       0.166000
@<TRIPOS>BOND
     1    26    25 1
     2    25    22 1
     3     3     4 ar
     4     3     2 ar
     5     4     7 ar
     6     1     2 1
     7    23    22 2
     8     2     5 ar
     9    22    24 2
    10    22    21 1
    11    20    19 1
    12    20     8 1
    13    20    21 1
    14    19    17 1
    15     7     8 1
    16     7     6 ar
    17     8     9 2
    18    21    18 1
    19     5     6 ar
    20    17     9 1
    21    17    18 1
    22     9    10 1
    23    16    10 ar
    24    16    15 ar
    25    10    11 ar
    26    15    13 ar
    27    11    12 ar
    28    13    12 ar
    29    13    14 1
    30     1    27 1
    31     3    28 1
    32     4    29 1
    33     5    30 1
    34     6    31 1
    35    14    32 1
    36    15    33 1
    37    16    34 1
    38    17    35 1
    39    18    36 1
    40    18    37 1
    41    20    38 1
    42    21    39 1
    43     1    40 2
    44    40    41 1
    45    41    42 1
    46    41    43 1
    47    40    44 1
    48    26    45 ar
    49    45    46 ar
    50    46    47 ar
    51    47    48 ar
    52    48    49 ar
    53    49    26 ar
    54    48    50 1
    55    11    51 1
    56    12    52 1
    57    45    53 1
    58    46    54 1
    59    47    55 1
    60    49    56 1
@<TRIPOS>SUBSTRUCTURE
     1 7KL         1 TEMP              0 ****  ****    0 ROOT
