@<TRIPOS>MOLECULE
7KM
   44    46     1     0     0
SMALL
bcc


@<TRIPOS>ATOM
      1 C10          0.0000     0.0000     0.0000 ca         1 7KM      -0.099500
      2 C13          1.3880    -0.0010     2.4010 ca         1 7KM      -0.094500
      3 C22         -2.9820    -1.0530    -5.2830 ca         1 7KM      -0.175500
      4 C24         -5.0570    -0.1450    -4.5060 ca         1 7KM      -0.132500
      5 C26         -3.8380    -1.6860    -3.1370 ca         1 7KM      -0.132500
      6 C01          5.7360     0.0040    -2.4610 c3         1 7KM       0.067200
      7 C02          4.2300     0.0020    -2.4730 ca         1 7KM      -0.126300
      8 C03          3.5500     0.0040    -3.6780 ca         1 7KM       0.183900
      9 F04          4.2370     0.0040    -4.8400 f          1 7KM      -0.104900
     10 C05          2.1510     0.0020    -3.6920 ca         1 7KM      -0.179600
     11 C06          1.4460     0.0020    -2.4890 ca         1 7KM      -0.071000
     12 C07          2.1380     0.0010    -1.2840 cp         1 7KM      -0.043000
     13 C08          3.5330    -0.0040    -1.2810 ca         1 7KM      -0.055000
     14 C09          1.3940     0.0000     0.0000 cp         1 7KM      -0.032000
     15 C11         -0.6870    -0.0000     1.1970 ca         1 7KM      -0.094500
     16 C12          0.0040    -0.0010     2.3940 ca         1 7KM      -0.097000
     17 C14          2.0850     0.0000     1.2100 ca         1 7KM      -0.099500
     18 O16          2.0400     0.0040    -6.0250 o          1 7KM      -0.607100
     19 N17          0.0750     0.0020    -4.9880 ns         1 7KM      -0.073300
     20 N18         -0.6150     0.0030    -6.2090 n7         1 7KM      -0.423100
     21 S19         -1.7380    -1.1720    -6.5250 sy         1 7KM       1.046200
     22 O20         -1.0840    -2.4180    -6.3190 o          1 7KM      -0.568300
     23 O21         -2.3590    -0.8130    -7.7510 o          1 7KM      -0.568300
     24 C23         -4.0800    -0.2380    -5.4810 ca         1 7KM       0.003000
     25 C25         -4.9340    -0.8660    -3.3330 ca         1 7KM      -0.043000
     26 C27         -2.8620    -1.7790    -4.1120 ca         1 7KM       0.003000
     27 H101        -0.5430     0.0010    -0.9380 ha         1 7KM       0.107500
     28 H131         1.9250    -0.0010     3.3420 ha         1 7KM       0.103500
     29 H241        -5.9170     0.4950    -4.6610 ha         1 7KM       0.111000
     30 H261        -3.7430    -2.2530    -2.2190 ha         1 7KM       0.111000
     31 H012         6.1010    -0.9900    -2.6910 hc         1 7KM       0.014700
     32 H013         6.1030     0.7030    -3.2030 hc         1 7KM       0.014700
     33 H011         6.0890     0.3000    -1.4800 hc         1 7KM       0.014700
     34 H061         0.3630     0.0060    -2.4940 ha         1 7KM       0.111000
     35 H081         4.0720    -0.0040    -0.3410 ha         1 7KM       0.120000
     36 H111        -1.7710    -0.0000     1.1990 ha         1 7KM       0.103500
     37 H121        -0.5390    -0.0010     3.3310 ha         1 7KM       0.104000
     38 H141         3.1680     0.0000     1.2150 ha         1 7KM       0.107500
     39 H171        -0.4310     0.0600    -4.1270 hn         1 7KM       0.178500
     40 H181        -0.4430     0.7240    -6.8800 hn         1 7KM       0.364800
     41 H231        -4.1760     0.3270    -6.4000 ha         1 7KM       0.124500
     42 H251        -5.6990    -0.7930    -2.5700 ha         1 7KM       0.104000
     43 H271        -2.0020    -2.4210    -3.9590 ha         1 7KM       0.124500
     44 C15          1.4240     0.0030    -4.9780 c          1 7KM       0.596700
@<TRIPOS>BOND
     1     1    14 ar  
     2     1    15 ar  
     3     1    27 1   
     4     2    16 ar  
     5     2    17 ar  
     6     2    28 1   
     7     3    21 1   
     8     3    24 ar  
     9     3    26 ar  
    10     4    24 ar  
    11     4    25 ar  
    12     4    29 1   
    13     5    25 ar  
    14     5    26 ar  
    15     5    30 1   
    16     6     7 1   
    17     6    31 1   
    18     6    32 1   
    19     6    33 1   
    20     7     8 ar  
    21     7    13 ar  
    22     8     9 1   
    23     8    10 ar  
    24    10    11 ar  
    25    10    44 1   
    26    11    12 ar  
    27    11    34 1   
    28    12    13 ar  
    29    12    14 1   
    30    13    35 1   
    31    14    17 ar  
    32    15    16 ar  
    33    15    36 1   
    34    16    37 1   
    35    17    38 1   
    36    18    44 2   
    37    19    20 1   
    38    19    39 1   
    39    19    44 1   
    40    20    21 1   
    41    20    40 1   
    42    21    22 2   
    43    21    23 2   
    44    24    41 1   
    45    25    42 1   
    46    26    43 1   
@<TRIPOS>SUBSTRUCTURE
     1 7KM         1 TEMP              0 ****  ****    0 ROOT
