@<TRIPOS>MOLECULE
molecule
   38    40     1     0     0
SMALL
bcc


@<TRIPOS>ATOM
      1 C5           0.0000     0.0000     0.0000 ca         1 7KO      -0.496600
      2 C6           1.3830     0.0000     0.0000 ca         1 7KO       0.631300
      3 N1           2.0320     0.0000     1.1570 nb         1 7KO      -0.838000
      4 C2           1.3730    -0.0000     2.3070 ca         1 7KO       0.997900
      5 N3           0.0490    -0.0000     2.3490 nb         1 7KO      -0.878000
      6 C4          -0.6660    -0.0000     1.2270 ca         1 7KO       0.781200
      7 CAK         -4.2330    -2.1710     0.2240 ca         1 7KO      -0.074500
      8 CAL         -4.4420    -3.5060    -0.0850 ca         1 7KO      -0.256300
      9 CAQ         -3.5150    -4.1690    -0.8680 ca         1 7KO       0.424200
     10 NAP         -2.4420    -3.5460    -1.3160 nb         1 7KO      -0.688000
     11 CAO         -2.2120    -2.2760    -1.0420 ca         1 7KO       0.430700
     12 CAJ         -3.0950    -1.5500    -0.2660 ca         1 7KO      -0.244600
     13 CAI         -2.8260    -0.0980     0.0380 c3         1 7KO       0.288100
     14 NAH         -2.0500     0.0060     1.2760 nh         1 7KO      -0.806300
     15 NAA          2.0850     0.0000     3.4930 nv         1 7KO      -0.987500
     16 Cl6          2.2610    -0.0010    -1.4980 cl         1 7KO      -0.150000
     17 CAN         -2.7370     0.1160     2.5650 c3         1 7KO       0.288100
     18 CAS         -2.9710     1.5700     2.8860 ca         1 7KO      -0.244600
     19 CAT         -2.0220     2.2950     3.5910 ca         1 7KO      -0.074500
     20 CAW         -2.2800     3.6290     3.8630 ca         1 7KO      -0.256300
     21 CAV         -3.4650     4.1890     3.4280 ca         1 7KO       0.424200
     22 NAU         -4.3470     3.4690     2.7610 nb         1 7KO      -0.688000
     23 CAR         -4.1320     2.2000     2.4790 ca         1 7KO       0.430700
     24 H1          -0.5540     0.0000    -0.9310 ha         1 7KO       0.152000
     25 H3          -5.3210    -4.0230     0.2800 ha         1 7KO       0.139500
     26 H4          -3.6700    -5.2120    -1.1130 h4         1 7KO       0.024100
     27 H5          -1.3200    -1.7980    -1.4280 h4         1 7KO       0.023100
     28 H6          -2.2670     0.3450    -0.7770 h1         1 7KO       0.066700
     29 H7          -3.7670     0.4260     0.1560 h1         1 7KO       0.066700
     30 H8           3.0860     0.0250     3.4760 hn         1 7KO       0.451800
     31 H9           1.6010    -0.0430     4.3680 hn         1 7KO       0.451800
     32 H10         -3.6880    -0.4000     2.5120 h1         1 7KO       0.066700
     33 H11         -2.1260    -0.3310     3.3390 h1         1 7KO       0.066700
     34 H12         -1.1000     1.8300     3.9200 ha         1 7KO       0.144500
     35 H13         -1.5600     4.2260     4.4110 ha         1 7KO       0.139500
     36 H14         -3.6750     5.2300     3.6400 h4         1 7KO       0.024100
     37 H15         -4.8790     1.6400     1.9290 h4         1 7KO       0.023100
     38 H2          -4.9430    -1.6260     0.8340 ha         1 7KO       0.144500
@<TRIPOS>BOND
     1    16     2 1
     2     8     7 ar
     3     8     9 ar
     4     7    12 ar
     5     9    10 ar
     6     2     1 ar
     7     2     3 ar
     8     1     6 ar
     9     3     4 ar
    10    12    13 1
    11    12    11 ar
    12    10    11 ar
    13    13    14 1
    14     6    14 1
    15     6     5 ar
    16     4     5 ar
    17     4    15 1
    18    14    17 1
    19    17    18 1
    20    19    18 ar
    21    19    20 ar
    22    18    23 ar
    23    20    21 ar
    24    23    22 ar
    25    21    22 ar
    26     1    24 1
    27     7    38 1
    28     8    25 1
    29     9    26 1
    30    11    27 1
    31    13    28 1
    32    13    29 1
    33    15    30 1
    34    15    31 1
    35    17    32 1
    36    17    33 1
    37    19    34 1
    38    20    35 1
    39    21    36 1
    40    23    37 1
@<TRIPOS>SUBSTRUCTURE
     1 7KO         1 TEMP              0 ****  ****    0 ROOT
