@<TRIPOS>MOLECULE
molecule
   50    52     1     0     0
SMALL
bcc


@<TRIPOS>ATOM
      1 C1           0.0000     0.0000     0.0000 c3         1 7KP       0.324900
      2 C2           1.5310     0.0000     0.0000 c3         1 7KP       0.122100
      3 C3           2.0330     0.0000     1.4480 c3         1 7KP       0.118100
      4 C4           1.4520     1.2140     2.1780 c3         1 7KP       0.107100
      5 C5          -0.0760     1.1680     2.0930 c3         1 7KP       0.142100
      6 C6          -0.6630     2.4100     2.7680 c3         1 7KP       0.151400
      7 CAG         -1.8070    -1.4520     0.5250 ca         1 7KP       0.153100
      8 CAH         -2.6340    -0.5780    -0.1680 ca         1 7KP      -0.220000
      9 CAI         -3.9910    -0.8400    -0.2790 ca         1 7KP       0.143100
     10 CAJ         -4.5300    -1.9770     0.3010 ca         1 7KP      -0.188000
     11 CAK         -3.7020    -2.8600     0.9990 ca         1 7KP      -0.013800
     12 CAL         -2.3360    -2.5920     1.1060 ca         1 7KP      -0.153000
     13 CAM         -4.2690    -4.0720     1.6160 ce         1 7KP      -0.109200
     14 CAN         -5.5830    -4.3280     1.5110 cf         1 7KP      -0.105200
     15 CAO         -5.3200    -6.4290     2.8170 ca         1 7KP      -0.105500
     16 CAP         -5.8550    -7.5600     3.3950 ca         1 7KP      -0.151500
     17 CAQ         -7.2150    -7.8190     3.2880 ca         1 7KP       0.106100
     18 CAR         -8.0440    -6.9420     2.6010 ca         1 7KP      -0.151500
     19 CAS         -7.5180    -5.8080     2.0200 ca         1 7KP      -0.105500
     20 CAT         -6.1500    -5.5390     2.1300 ca         1 7KP      -0.066800
     21 O1          -0.4770    -1.1930     0.6250 os         1 7KP      -0.336900
     22 O2           2.0090    -1.1680    -0.6700 oh         1 7KP      -0.583800
     23 O3           3.4600     0.0740     1.4580 oh         1 7KP      -0.608800
     24 O4           1.8550     1.1860     3.5490 oh         1 7KP      -0.597800
     25 O5          -0.4750     1.1390     0.7210 os         1 7KP      -0.413600
     26 O6          -2.0880     2.3100     2.7920 oh         1 7KP      -0.594800
     27 OBA         -4.7950     0.0200    -0.9580 oh         1 7KP      -0.518100
     28 H1          -0.3590     0.0460    -1.0210 h2         1 7KP       0.089700
     29 H2           1.8910     0.8870    -0.5070 h1         1 7KP       0.064700
     30 H3           1.7090    -0.9080     1.9420 h1         1 7KP       0.078700
     31 H4           1.8110     2.1220     1.7090 h1         1 7KP       0.050700
     32 H5          -0.4370     0.2760     2.5900 h1         1 7KP       0.081700
     33 H6          -0.3720     3.2940     2.2150 h1         1 7KP       0.034200
     34 H7          -0.2890     2.4790     3.7830 h1         1 7KP       0.034200
     35 H8          -2.2170     0.3130    -0.6230 ha         1 7KP       0.157000
     36 H9          -5.5900    -2.1800     0.2140 ha         1 7KP       0.141000
     37 H10         -1.6910    -3.2740     1.6460 ha         1 7KP       0.145000
     38 H11         -3.6260    -4.7560     2.1570 ha         1 7KP       0.136000
     39 H13         -6.2270    -3.6430     0.9710 ha         1 7KP       0.137000
     40 H15         -4.2590    -6.2270     2.9000 ha         1 7KP       0.136000
     41 H16         -5.2130    -8.2490     3.9300 ha         1 7KP       0.140500
     42 H17         -9.1030    -7.1500     2.5190 ha         1 7KP       0.140500
     43 H18         -8.1640    -5.1230     1.4840 ha         1 7KP       0.136000
     44 H19          2.5220    -0.9130    -1.4190 ho         1 7KP       0.409000
     45 H20          3.8110    -0.6860     1.8930 ho         1 7KP       0.417000
     46 H21          2.5410     1.8170     3.6870 ho         1 7KP       0.412000
     47 H22         -2.4430     2.9990     3.3290 ho         1 7KP       0.403000
     48 H23         -4.9470    -0.3110    -1.8270 ho         1 7KP       0.418000
     49 H24         -7.7590    -9.6330     3.2230 ho         1 7KP       0.419000
     50 OBB         -7.7380    -8.9360     3.8580 oh         1 7KP      -0.523100
@<TRIPOS>BOND
     1    22     2 1
     2     2     1 1
     3     2     3 1
     4    23     3 1
     5     1    25 1
     6     1    21 1
     7    27     9 1
     8     3     4 1
     9    25     5 1
    10     8     9 ar
    11     8     7 ar
    12     9    10 ar
    13     4     5 1
    14     4    24 1
    15    21     7 1
    16    26     6 1
    17     7    12 ar
    18     5     6 1
    19    10    11 ar
    20    12    11 ar
    21    11    13 1
    22    13    14 2
    23    14    20 1
    24    19    20 ar
    25    19    18 ar
    26    20    15 ar
    27    18    17 ar
    28    15    16 ar
    29    17    16 ar
    30    17    50 1
    31     1    28 1
    32     2    29 1
    33     3    30 1
    34     4    31 1
    35     5    32 1
    36     6    33 1
    37     6    34 1
    38     8    35 1
    39    10    36 1
    40    12    37 1
    41    13    38 1
    42    14    39 1
    43    15    40 1
    44    16    41 1
    45    18    42 1
    46    19    43 1
    47    22    44 1
    48    23    45 1
    49    24    46 1
    50    26    47 1
    51    27    48 1
    52    50    49 1
@<TRIPOS>SUBSTRUCTURE
     1 7KP         1 TEMP              0 ****  ****    0 ROOT
