@<TRIPOS>MOLECULE
molecule
   29    29     1     0     0
SMALL
bcc


@<TRIPOS>ATOM
      1 O2           0.0000     0.0000     0.0000 o          1 7KT      -0.644800
      2 S1           1.4210     0.0000     0.0000 sy         1 7KT       1.433200
      3 O1           2.1990     0.0000     1.1880 o          1 7KT      -0.644800
      4 N1           1.8890    -1.3330    -0.8650 n7         1 7KT      -0.917100
      5 C1           3.3120    -1.6030    -1.0810 c3         1 7KT       0.222100
      6 C2           1.9180     1.4190    -0.9190 ca         1 7KT      -0.329500
      7 C9           1.0600     1.9750    -1.8500 ca         1 7KT       0.030700
      8 C10         -0.3010     1.3690    -2.0770 c3         1 7KT      -0.070800
      9 C8           1.4490     3.0890    -2.5700 ca         1 7KT      -0.164000
     10 C6           2.6980     3.6450    -2.3620 ca         1 7KT      -0.018300
     11 C7           3.1220     4.8590    -3.1480 c3         1 7KT      -0.056800
     12 C5           3.5560     3.0880    -1.4330 ca         1 7KT      -0.164000
     13 C3           3.1630     1.9790    -0.7070 ca         1 7KT       0.030700
     14 C4           4.1000     1.3720     0.3060 c3         1 7KT      -0.070800
     15 H1           1.2010    -1.9760    -1.2030 hn         1 7KT       0.453800
     16 H2           3.4270    -2.5600    -1.5750 h1         1 7KT       0.043033
     17 H3           3.8240    -1.6260    -0.1260 h1         1 7KT       0.043033
     18 H4           3.7380    -0.8230    -1.7000 h1         1 7KT       0.043033
     19 H5          -0.7870     1.8710    -2.9040 hc         1 7KT       0.060367
     20 H6          -0.9010     1.4830    -1.1820 hc         1 7KT       0.060367
     21 H7          -0.1930     0.3160    -2.3070 hc         1 7KT       0.060367
     22 H8           0.7760     3.5240    -3.2990 ha         1 7KT       0.136500
     23 H9           3.5510     4.5460    -4.0920 hc         1 7KT       0.048367
     24 H10          2.2600     5.4880    -3.3340 hc         1 7KT       0.048367
     25 H11          3.8590     5.4160    -2.5830 hc         1 7KT       0.048367
     26 H12          4.5330     3.5250    -1.2670 ha         1 7KT       0.136500
     27 H13          5.0560     1.8780     0.2620 hc         1 7KT       0.060367
     28 H14          4.2370     0.3200     0.0870 hc         1 7KT       0.060367
     29 H15          3.6790     1.4820     1.2980 hc         1 7KT       0.060367
@<TRIPOS>BOND
     1    11    10 1
     2    10     9 ar
     3    10    12 ar
     4     9     7 ar
     5    12    13 ar
     6     5     4 1
     7     7     8 1
     8     7     6 ar
     9    13     6 ar
    10    13    14 1
    11     6     2 1
    12     4     2 1
    13     2     1 2
    14     2     3 2
    15     4    15 1
    16     5    16 1
    17     5    17 1
    18     5    18 1
    19     8    19 1
    20     8    20 1
    21     8    21 1
    22     9    22 1
    23    11    23 1
    24    11    24 1
    25    11    25 1
    26    12    26 1
    27    14    27 1
    28    14    28 1
    29    14    29 1
@<TRIPOS>SUBSTRUCTURE
     1 7KT         1 TEMP              0 ****  ****    0 ROOT
