@<TRIPOS>MOLECULE
7KT
   29    29     1     0     0
SMALL
bcc


@<TRIPOS>ATOM
      1 O2           0.0000     0.0000     0.0000 o          1 7KT      -0.593800
      2 S1           1.4210     0.0000     0.0000 sy         1 7KT       1.047200
      3 O1           2.1990     0.0000     1.1880 o          1 7KT      -0.593800
      4 N1           1.8890    -1.3330    -0.8650 n7         1 7KT      -0.581100
      5 C1           3.3120    -1.6030    -1.0810 c3         1 7KT       0.258100
      6 C2           1.9180     1.4190    -0.9190 ca         1 7KT      -0.175500
      7 C9           1.0600     1.9750    -1.8500 ca         1 7KT       0.037700
      8 C10         -0.3010     1.3690    -2.0770 c3         1 7KT       0.017200
      9 C8           1.4490     3.0890    -2.5700 ca         1 7KT      -0.152000
     10 C6           2.6980     3.6450    -2.3620 ca         1 7KT      -0.023300
     11 C7           3.1220     4.8590    -3.1480 c3         1 7KT       0.056200
     12 C5           3.5560     3.0880    -1.4330 ca         1 7KT      -0.152000
     13 C3           3.1630     1.9790    -0.7070 ca         1 7KT       0.037700
     14 C4           4.1000     1.3720     0.3060 c3         1 7KT       0.017200
     15 H1           1.2010    -1.9760    -1.2030 hn         1 7KT       0.346800
     16 H2           3.4270    -2.5600    -1.5750 h1         1 7KT       0.003367
     17 H3           3.8240    -1.6260    -0.1260 h1         1 7KT       0.003367
     18 H4           3.7380    -0.8230    -1.7000 h1         1 7KT       0.003367
     19 H5          -0.7870     1.8710    -2.9040 hc         1 7KT       0.030033
     20 H6          -0.9010     1.4830    -1.1820 hc         1 7KT       0.030033
     21 H7          -0.1930     0.3160    -2.3070 hc         1 7KT       0.030033
     22 H8           0.7760     3.5240    -3.2990 ha         1 7KT       0.116000
     23 H9           3.5510     4.5460    -4.0920 hc         1 7KT       0.011367
     24 H10          2.2600     5.4880    -3.3340 hc         1 7KT       0.011367
     25 H11          3.8590     5.4160    -2.5830 hc         1 7KT       0.011367
     26 H12          4.5330     3.5250    -1.2670 ha         1 7KT       0.116000
     27 H13          5.0560     1.8780     0.2620 hc         1 7KT       0.030033
     28 H14          4.2370     0.3200     0.0870 hc         1 7KT       0.030033
     29 H15          3.6790     1.4820     1.2980 hc         1 7KT       0.030033
@<TRIPOS>BOND
     1     1     2 2   
     2     2     3 2   
     3     2     4 1   
     4     2     6 1   
     5     4     5 1   
     6     4    15 1   
     7     5    16 1   
     8     5    17 1   
     9     5    18 1   
    10     6     7 ar  
    11     6    13 ar  
    12     7     8 1   
    13     7     9 ar  
    14     8    19 1   
    15     8    20 1   
    16     8    21 1   
    17     9    10 ar  
    18     9    22 1   
    19    10    11 1   
    20    10    12 ar  
    21    11    23 1   
    22    11    24 1   
    23    11    25 1   
    24    12    13 ar  
    25    12    26 1   
    26    13    14 1   
    27    14    27 1   
    28    14    28 1   
    29    14    29 1   
@<TRIPOS>SUBSTRUCTURE
     1 7KT         1 TEMP              0 ****  ****    0 ROOT
