@<TRIPOS>MOLECULE
7KU
   39    41     1     0     0
SMALL
bcc


@<TRIPOS>ATOM
      1 N3           0.0000     0.0000     0.0000 na         1 7KU       0.275900
      2 C4           7.3650     0.7880     4.8470 c3         1 7KU       0.040000
      3 N2           3.6140    -0.0030     2.9310 nu         1 7KU      -0.481900
      4 C7           5.0540    -0.0030     3.2020 c3         1 7KU       0.114500
      5 C6           5.3130    -0.6130     4.5830 c3         1 7KU      -0.039400
      6 C9           3.1570    -0.0020     1.6260 ca         1 7KU       0.601200
      7 C13          1.3680     0.0000     0.0000 ca         1 7KU       0.293800
      8 C8           5.5800     1.4350     3.1780 c3         1 7KU       0.032000
      9 N5           4.0090    -0.0010     0.6040 nb         1 7KU      -0.742000
     10 C1          10.2400     2.6880     2.1740 c3         1 7KU       0.021900
     11 C2           9.3770     1.9880     3.2240 c3         1 7KU      -0.100400
     12 O1           7.6110     2.5290     1.7540 o          1 7KU      -0.637100
     13 N1           6.9930     1.4290     3.5780 n          1 7KU      -0.154800
     14 C5           6.8180    -0.6440     4.8530 c3         1 7KU      -0.033400
     15 C10          1.7820     0.0000     1.3450 ca         1 7KU      -0.415400
     16 C11          0.5610    -0.0000     2.1490 cc         1 7KU      -0.125200
     17 C12         -0.4700     0.0060     1.2880 cd         1 7KU      -0.287100
     18 N4           2.2980     0.0010    -0.9530 nb         1 7KU      -0.691000
     19 C14          3.5760    -0.0000    -0.6430 ca         1 7KU       0.694900
     20 H1          -0.5740     0.0030    -0.8200 hn         1 7KU       0.118700
     21 H2           8.4440     0.7640     4.9390 h1         1 7KU       0.025200
     22 H3           6.9370     1.3420     5.6730 h1         1 7KU       0.025200
     23 H4           2.9620    -0.0300     3.6890 hn         1 7KU       0.295800
     24 H5           5.5690    -0.5870     2.4490 h1         1 7KU       0.067700
     25 H6           4.8240    -0.0120     5.3390 hc         1 7KU       0.020200
     26 H7           4.9220    -1.6230     4.6090 hc         1 7KU       0.020200
     27 H8           5.0090     2.0410     3.8710 h1         1 7KU       0.044700
     28 H9           5.4890     1.8370     2.1760 h1         1 7KU       0.044700
     29 H10         11.2770     2.6660     2.4860 hc         1 7KU       0.008700
     30 H11         10.1380     2.1770     1.2240 hc         1 7KU       0.008700
     31 H12          9.9170     3.7160     2.0670 hc         1 7KU       0.008700
     32 H13          9.4790     2.4990     4.1740 hc         1 7KU       0.025200
     33 H14          9.6930     0.9570     3.3330 hc         1 7KU       0.025200
     34 H15          7.3110    -1.2220     4.0800 hc         1 7KU       0.023200
     35 H16          7.0010    -1.0960     5.8210 hc         1 7KU       0.023200
     36 H17          0.4990     0.0020     3.2300 ha         1 7KU       0.123000
     37 H18         -1.5160     0.0150     1.5700 h4         1 7KU       0.143000
     38 H19          4.3050     0.0010    -1.4450 h5         1 7KU      -0.004900
     39 C3           7.9310     2.0020     2.7990 c          1 7KU       0.585100
@<TRIPOS>BOND
     1     1     7 1   
     2     1    17 1   
     3     1    20 1   
     4     2    13 1   
     5     2    14 1   
     6     2    21 1   
     7     2    22 1   
     8     3     4 1   
     9     3     6 1   
    10     3    23 1   
    11     4     5 1   
    12     4     8 1   
    13     4    24 1   
    14     5    14 1   
    15     5    25 1   
    16     5    26 1   
    17     6     9 ar  
    18     6    15 ar  
    19     7    15 ar  
    20     7    18 ar  
    21     8    13 1   
    22     8    27 1   
    23     8    28 1   
    24     9    19 ar  
    25    10    11 1   
    26    10    29 1   
    27    10    30 1   
    28    10    31 1   
    29    11    32 1   
    30    11    33 1   
    31    11    39 1   
    32    12    39 2   
    33    13    39 1   
    34    14    34 1   
    35    14    35 1   
    36    15    16 1   
    37    16    17 2   
    38    16    36 1   
    39    17    37 1   
    40    18    19 ar  
    41    19    38 1   
@<TRIPOS>SUBSTRUCTURE
     1 7KU         1 TEMP              0 ****  ****    0 ROOT
