@<TRIPOS>MOLECULE
molecule
   39    42     1     0     0
SMALL
bcc


@<TRIPOS>ATOM
      1 C1           0.0000     0.0000     0.0000 ca         1 7KW      -0.118000
      2 C6           1.3830     0.0000     0.0000 ca         1 7KW      -0.149000
      3 C5           2.0760     0.0000     1.1930 ca         1 7KW      -0.075500
      4 C4           1.3810     0.0010     2.4000 ca         1 7KW      -0.116500
      5 C3          -0.0130     0.0020     2.3950 ca         1 7KW      -0.075500
      6 C2          -0.6960     0.0010     1.1960 ca         1 7KW      -0.149000
      7 C7           2.1210     0.0010     3.6860 cc         1 7KW       0.440800
      8 C9           3.2410     0.8090     4.0050 cc         1 7KW      -0.368800
      9 C8           3.6180     0.5010     5.2800 cd         1 7KW      -0.083300
     10 N2           2.7810    -0.4490     5.7390 na         1 7KW      -0.034600
     11 N1           1.8520    -0.7450     4.7340 nd         1 7KW      -0.505800
     12 C10          3.8860     1.8050     3.1180 ca         1 7KW       0.604800
     13 C14          5.0650     2.4460     3.5090 ca         1 7KW      -0.442600
     14 C13          5.6310     3.3680     2.6470 ca         1 7KW       0.499200
     15 N3           5.0420     3.6160     1.4860 nb         1 7KW      -0.795000
     16 C12          3.9230     2.9940     1.1420 ca         1 7KW       0.941900
     17 N4           3.3410     3.2820    -0.0810 nu         1 7KW      -0.756300
     18 C15          3.8640     4.3030    -0.8820 ca         1 7KW       0.161600
     19 C20          3.8740     4.1660    -2.2640 ca         1 7KW      -0.142500
     20 C19          4.3920     5.1760    -3.0520 ca         1 7KW      -0.113000
     21 C18          4.8990     6.3210    -2.4660 ca         1 7KW      -0.148000
     22 N9           3.3520     2.1010     1.9340 nb         1 7KW      -0.793000
     23 C17          4.8900     6.4590    -1.0900 ca         1 7KW      -0.113000
     24 C16          4.3690     5.4570    -0.2970 ca         1 7KW      -0.142500
     25 H1          -0.5400    -0.0000    -0.9390 ha         1 7KW       0.126000
     26 H2          -1.7790     0.0020     1.1910 ha         1 7KW       0.127500
     27 H6           1.9240    -0.0010    -0.9390 ha         1 7KW       0.127500
     28 H3          -0.5590     0.0030     3.3310 ha         1 7KW       0.140000
     29 H5           3.1600    -0.0000     1.1910 ha         1 7KW       0.140000
     30 HA           2.8140    -0.8690     6.6470 hn         1 7KW       0.334700
     31 H8           4.4440     0.9410     5.8250 h4         1 7KW       0.175000
     32 H14          5.5270     2.2250     4.4630 ha         1 7KW       0.138000
     33 H13          6.5450     3.8820     2.9180 h4         1 7KW       0.028100
     34 H4           2.5180     2.7910    -0.3710 hn         1 7KW       0.468800
     35 H20          3.4770     3.2690    -2.7230 ha         1 7KW       0.141500
     36 H16          4.3630     5.5660     0.7810 ha         1 7KW       0.141500
     37 H19          4.4000     5.0700    -4.1300 ha         1 7KW       0.129500
     38 H18          5.3070     7.1100    -3.0860 ha         1 7KW       0.128000
     39 H17          5.2870     7.3590    -0.6350 ha         1 7KW       0.129500
@<TRIPOS>BOND
     1     1     6 ar
     2     1     2 ar
     3     6     5 ar
     4     5     4 ar
     5     4     3 ar
     6     4     7 1
     7     3     2 ar
     8     7     8 1
     9     7    11 2
    10     8     9 2
    11     8    12 1
    12     9    10 1
    13    10    11 1
    14    12    13 ar
    15    12    22 ar
    16    13    14 ar
    17    14    15 ar
    18    15    16 ar
    19    16    17 1
    20    16    22 ar
    21    17    18 1
    22    18    19 ar
    23    18    24 ar
    24    19    20 ar
    25    20    21 ar
    26    21    23 ar
    27    23    24 ar
    28     1    25 1
    29     6    26 1
    30     2    27 1
    31     5    28 1
    32     3    29 1
    33    10    30 1
    34     9    31 1
    35    13    32 1
    36    14    33 1
    37    17    34 1
    38    19    35 1
    39    24    36 1
    40    20    37 1
    41    21    38 1
    42    23    39 1
@<TRIPOS>SUBSTRUCTURE
     1 7KW         1 TEMP              0 ****  ****    0 ROOT
