@<TRIPOS>MOLECULE
molecule
   34    36     1     0     0
SMALL
bcc


@<TRIPOS>ATOM
      1 N3           0.0000     0.0000     0.0000 nb         1 7KX      -0.765000
      2 C4           1.9430    -0.6910    -6.0510 ca         1 7KX       0.045600
      3 N2           2.2870     0.0000     0.9770 na         1 7KX      -0.274100
      4 C7           3.0960     0.6890    -3.9360 ca         1 7KX      -0.124000
      5 C6           3.7050     0.6870    -5.1750 ca         1 7KX      -0.122000
      6 C9           1.3230    -0.6950    -4.8100 ca         1 7KX      -0.083000
      7 C13          3.5340    -0.0010     0.4130 cc         1 7KX      -0.101100
      8 C8           1.8990    -0.0020    -3.7470 cp         1 7KX      -0.135500
      9 C1          -0.5070    -4.5970    -7.5570 c3         1 7KX      -0.077100
     10 C2           0.1830    -3.3340    -8.0740 c3         1 7KX      -0.159400
     11 C3           0.7140    -2.5400    -6.9080 c          1 7KX       0.657100
     12 O1           0.5560    -2.9440    -5.7760 o          1 7KX      -0.588100
     13 C5           3.1340     0.0020    -6.2300 ca         1 7KX      -0.150000
     14 C10          1.2420    -0.0020    -2.4190 cp         1 7KX       0.570800
     15 C11          2.0040    -0.0020    -1.2400 ca         1 7KX      -0.337400
     16 C12          3.4300    -0.0020    -0.9270 cd         1 7KX      -0.178200
     17 C14          1.3300     0.0000     0.0000 ca         1 7KX       0.492800
     18 C15         -0.6730    -0.0010    -1.1320 ca         1 7KX       0.702900
     19 N4          -0.0850    -0.0020    -2.3120 nb         1 7KX      -0.754000
     20 H1           2.1020     0.0010     1.9610 hn         1 7KX       0.306700
     21 H2           3.5460     1.2280    -3.1110 ha         1 7KX       0.139000
     22 H3           4.6340     1.2250    -5.3200 ha         1 7KX       0.132000
     23 H4           0.3930    -1.2330    -4.6690 ha         1 7KX       0.183000
     24 H5           4.4670    -0.0010     0.9650 h4         1 7KX       0.172000
     25 H6          -1.3640    -4.3200    -6.9540 hc         1 7KX       0.045700
     26 H7          -0.8360    -5.1990    -8.3960 hc         1 7KX       0.045700
     27 H8           0.1890    -5.1680    -6.9540 hc         1 7KX       0.045700
     28 H9          -0.5290    -2.7330    -8.6260 hc         1 7KX       0.059200
     29 H10          1.0030    -3.6110    -8.7250 hc         1 7KX       0.059200
     30 H11          1.4120    -0.9960    -8.0470 hn         1 7KX       0.323500
     31 H12          3.6170     0.0040    -7.2000 ha         1 7KX       0.128000
     32 H13          4.2470    -0.0030    -1.6380 ha         1 7KX       0.162000
     33 H14         -1.7550    -0.0010    -1.0910 h5         1 7KX       0.060100
     34 N1           1.3650    -1.3790    -7.1240 ns         1 7KX      -0.482100
@<TRIPOS>BOND
     1    12    11 2   
     2     9    10 1   
     3    10    11 1   
     4    11    34 1   
     5    34     2 1   
     6     2    13 ar  
     7     2     6 ar  
     8    13     5 ar  
     9     6     8 ar  
    10     5     4 ar  
    11     8     4 ar  
    12     8    14 1   
    13    16     7 2   
    14    16    15 1   
    15     7     3 1   
    16    15    14 ar  
    17    15    17 ar  
    18    14    19 ar  
    19     3    17 1   
    20    17     1 ar  
    21    19    18 ar  
    22     1    18 ar  
    23     3    20 1   
    24     4    21 1   
    25     5    22 1   
    26     6    23 1   
    27     7    24 1   
    28     9    25 1   
    29     9    26 1   
    30     9    27 1   
    31    10    28 1   
    32    10    29 1   
    33    34    30 1   
    34    13    31 1   
    35    16    32 1   
    36    18    33 1   
@<TRIPOS>SUBSTRUCTURE
     1 7KX         1 TEMP              0 ****  ****    0 ROOT
