@<TRIPOS>MOLECULE
molecule
   46    48     1     0     0
SMALL
bcc


@<TRIPOS>ATOM
      1 CBB          0.0000     0.0000     0.0000 c3         1 7KY       0.138700
      2 OBA          1.4520     0.0000     0.0000 os         1 7KY      -0.414900
      3 CAJ          2.0640     0.0000     1.2010 c          1 7KY       0.663700
      4 OAK          1.4070    -0.0960     2.2190 o          1 7KY      -0.535000
      5 CAE          3.5280     0.1170     1.2800 ca         1 7KY      -0.128600
      6 CAD          4.3330    -1.0290     1.1860 ca         1 7KY       0.174100
      7 OAI          3.7630    -2.2490     1.0200 oh         1 7KY      -0.500100
      8 CAC          5.7100    -0.9100     1.2610 ca         1 7KY      -0.214000
      9 CAB          6.2920     0.3370     1.4300 ca         1 7KY       0.157100
     10 OAH          7.6420     0.4490     1.5030 oh         1 7KY      -0.508100
     11 CAA          5.4950     1.4760     1.5230 ca         1 7KY      -0.023600
     12 Cl1          6.2340     3.0340     1.7270 cl         1 7KY      -0.092400
     13 CAF          4.1260     1.3720     1.4450 ca         1 7KY      -0.008300
     14 CAL          3.2680     2.6070     1.5470 c3         1 7KY      -0.048100
     15 CAM          3.0650     3.2030     0.1530 c3         1 7KY      -0.091700
     16 CAN          2.2140     4.4420     0.2550 cc         1 7KY       0.402800
     17 NAR          0.9090     4.4690     0.2940 nd         1 7KY      -0.694000
     18 CAQ          0.4950     5.7410     0.3870 cd         1 7KY       0.315200
     19 CAP          1.5840     6.5340     0.4060 cc         1 7KY      -0.277600
     20 NAO          2.6750     5.7100     0.3280 na         1 7KY      -0.177900
     21 CAS          4.0780     6.1260     0.3170 c3         1 7KY       0.087600
     22 CAT          4.5550     6.2470    -1.1080 ca         1 7KY      -0.109300
     23 CAU          4.3100     7.4050    -1.8220 ca         1 7KY      -0.108500
     24 CAV          4.7470     7.5160    -3.1290 ca         1 7KY      -0.101000
     25 CAW          5.4310     6.4700    -3.7210 ca         1 7KY      -0.008900
     26 Br1          6.0290     6.6220    -5.5090 br         1 7KY      -0.089100
     27 CAX          5.6760     5.3120    -3.0060 ca         1 7KY      -0.101000
     28 CAY          5.2440     5.2030    -1.6970 ca         1 7KY      -0.108500
     29 H1          -0.3610    -0.9490     0.3780 h1         1 7KY       0.053033
     30 H2          -0.3610     0.8020     0.6330 h1         1 7KY       0.053033
     31 H3          -0.3610     0.1470    -1.0110 h1         1 7KY       0.053033
     32 H4           4.0190    -2.8150     1.7300 ho         1 7KY       0.432000
     33 H5           6.3350    -1.7920     1.1880 ha         1 7KY       0.159000
     34 H6           7.9240     0.2830     2.3880 ho         1 7KY       0.430000
     35 H7           3.7570     3.3350     2.1830 hc         1 7KY       0.075200
     36 H8           2.3060     2.3450     1.9710 hc         1 7KY       0.075200
     37 H9           2.5700     2.4780    -0.4820 hc         1 7KY       0.070200
     38 H10          4.0270     3.4600    -0.2740 hc         1 7KY       0.070200
     39 H11         -0.5350     6.0740     0.4360 h4         1 7KY       0.041100
     40 H12          1.5950     7.6150     0.4760 h4         1 7KY       0.171000
     41 H13          4.1750     7.0850     0.8130 h1         1 7KY       0.071200
     42 H14          4.6780     5.3890     0.8370 h1         1 7KY       0.071200
     43 H15          3.7750     8.2240    -1.3580 ha         1 7KY       0.140000
     44 H16          4.5550     8.4230    -3.6880 ha         1 7KY       0.148000
     45 H17          6.2130     4.4930    -3.4690 ha         1 7KY       0.148000
     46 H18          5.4350     4.2950    -1.1370 ha         1 7KY       0.140000
@<TRIPOS>BOND
     1    19    18 2   
     2    19    20 1   
     3    18    17 1   
     4    28    27 ar  
     5    28    22 ar  
     6    27    25 ar  
     7    20    21 1   
     8    20    16 1   
     9    17    16 2   
    10    21    22 1   
    11    22    23 ar  
    12    25    26 1   
    13    25    24 ar  
    14    16    15 1   
    15    23    24 ar  
    16    15    14 1   
    17    12    11 1   
    18    14    13 1   
    19    11    13 ar  
    20    11     9 ar  
    21    13     5 ar  
    22     2     1 1   
    23     2     3 1   
    24    10     9 1   
    25     9     8 ar  
    26     5     3 1   
    27     5     6 ar  
    28     3     4 2   
    29     8     6 ar  
    30     6     7 1   
    31     1    29 1   
    32     1    30 1   
    33     1    31 1   
    34     7    32 1   
    35     8    33 1   
    36    10    34 1   
    37    14    35 1   
    38    14    36 1   
    39    15    37 1   
    40    15    38 1   
    41    18    39 1   
    42    19    40 1   
    43    21    41 1   
    44    21    42 1   
    45    23    43 1   
    46    24    44 1   
    47    27    45 1   
    48    28    46 1   
@<TRIPOS>SUBSTRUCTURE
     1 7KY         1 TEMP              0 ****  ****    0 ROOT
