@<TRIPOS>MOLECULE
molecule
   64    66     1     0     0
SMALL
bcc


@<TRIPOS>ATOM
      1 C4           0.0000     0.0000     0.0000 c3         1 7KZ      -0.103400
      2 C5           1.5300     0.0000     0.0000 c3         1 7KZ       0.248800
      3 C6           3.3800     0.0000     1.6330 ca         1 7KZ       0.983900
      4 N1           3.7940     0.0010     2.8970 nb         1 7KZ      -0.884000
      5 C7           5.0830    -0.0040     3.2020 ca         1 7KZ       0.782200
      6 C8           4.5090     0.0030     5.5970 c3         1 7KZ       0.241500
      7 N2           5.4980    -0.0030     4.5170 nu         1 7KZ      -0.896900
      8 C9           5.1300     0.6110     6.8580 c3         1 7KZ      -0.094400
      9 C10          4.1120     0.5610     7.9990 c3         1 7KZ       0.167300
     10 C12          3.0810    -1.4250     7.0670 c3         1 7KZ       0.167300
     11 N3           3.7220    -0.8330     8.2480 n3         1 7KZ      -0.735600
     12 C13          4.0680    -1.4330     5.8980 c3         1 7KZ      -0.094400
     13 C14          6.0250    -0.0100     2.1440 ca         1 7KZ      -0.364600
     14 C15          7.4050    -0.0160     2.3830 ca         1 7KZ      -0.152000
     15 N4           4.2120    -0.0050     0.6100 nb         1 7KZ      -0.847000
     16 C19          8.1410    -0.0290    -2.3420 c3         1 7KZ       0.124700
     17 C18          7.8010    -0.0240     0.0110 ca         1 7KZ       0.173100
     18 C16          8.2740    -0.0230     1.3300 ca         1 7KZ       0.090100
     19 O            9.6140    -0.0280     1.5640 os         1 7KZ      -0.315900
     20 C17         10.0340    -0.0280     2.9300 c3         1 7KZ       0.128700
     21 C20          6.4480    -0.0160    -0.2510 ca         1 7KZ      -0.287300
     22 C21          5.5390    -0.0110     0.8130 ca         1 7KZ       0.531600
     23 N            2.0180     0.0000     1.3810 nu         1 7KZ      -0.901900
     24 H1          -0.3610    -0.8840     0.5120 hc         1 7KZ       0.045200
     25 H2          -0.3610     0.8850     0.5100 hc         1 7KZ       0.045200
     26 H4           1.8910     0.8840    -0.5110 h1         1 7KZ       0.051700
     27 H5           1.8910    -0.8840    -0.5110 h1         1 7KZ       0.051700
     28 H6           3.6470     0.5890     5.3010 h1         1 7KZ       0.079700
     29 H7           6.4750     0.0310     4.7330 hn         1 7KZ       0.447800
     30 H8           5.4030     1.6410     6.6640 hc         1 7KZ       0.055700
     31 H9           6.0100     0.0440     7.1360 hc         1 7KZ       0.055700
     32 H10          3.2350     1.1360     7.7240 h1         1 7KZ       0.036450
     33 H11          4.5550     0.9760     8.8960 h1         1 7KZ       0.036450
     34 H12          1.9420    -0.3710     9.2530 h1         1 7KZ       0.032033
     35 H13          2.6040    -1.9730     9.6060 h1         1 7KZ       0.032033
     36 H14          3.3660    -0.5310    10.2910 h1         1 7KZ       0.032033
     37 H15          2.7820    -2.4410     7.2920 h1         1 7KZ       0.036450
     38 H16          2.2110    -0.8380     6.7980 h1         1 7KZ       0.036450
     39 H18          3.5870    -1.8530     5.0230 hc         1 7KZ       0.055700
     40 H19          4.9340    -2.0280     6.1620 hc         1 7KZ       0.055700
     41 H20          7.7810    -0.0160     3.3990 ha         1 7KZ       0.131000
     42 H21          7.5570     0.8710    -2.4910 h1         1 7KZ       0.044367
     43 H22          7.5040    -0.8970    -2.4620 h1         1 7KZ       0.044367
     44 H23          8.9420    -0.0650    -3.0700 h1         1 7KZ       0.044367
     45 H24         11.1160    -0.0290     2.9750 h1         1 7KZ       0.038367
     46 H25          9.6530     0.8570     3.4240 h1         1 7KZ       0.038367
     47 H26          9.6510    -0.9120     3.4250 h1         1 7KZ       0.038367
     48 H27          6.0940     0.1060    -1.2670 ha         1 7KZ       0.159000
     49 H28          1.3690     0.0260     2.1410 hn         1 7KZ       0.450800
     50 C1          -0.5110    -0.0010    -1.4410 c3         1 7KZ      -0.077400
     51 C2          -2.0410    -0.0010    -1.4410 c3         1 7KZ      -0.081400
     52 C3          -2.5520    -0.0020    -2.8840 c3         1 7KZ      -0.084400
     53 C22         -4.0810    -0.0020    -2.8830 c3         1 7KZ      -0.092100
     54 H3          -0.1500    -0.8860    -1.9520 hc         1 7KZ       0.045200
     55 H17         -0.1500     0.8830    -1.9530 hc         1 7KZ       0.045200
     56 H29         -2.4020    -0.8850    -0.9300 hc         1 7KZ       0.041700
     57 H30         -2.4020     0.8840    -0.9310 hc         1 7KZ       0.041700
     58 H31         -2.1910    -0.8870    -3.3940 hc         1 7KZ       0.040700
     59 H32         -2.1910     0.8820    -3.3960 hc         1 7KZ       0.040700
     60 H33         -4.4420     0.8790    -2.3650 hc         1 7KZ       0.032700
     61 H34         -4.4420    -0.8900    -2.3780 hc         1 7KZ       0.032700
     62 H35         -4.4430     0.0050    -3.9040 hc         1 7KZ       0.032700
     63 O1           8.6860    -0.0290    -1.0200 os         1 7KZ      -0.310900
     64 C11          2.8510    -0.9340     9.4270 c3         1 7KZ       0.154100
@<TRIPOS>BOND
     1     2     1 1
     2     2    23 1
     3    16    63 1
     4    15     3 ar
     5    15    22 ar
     6    21    22 ar
     7    21    17 ar
     8    23     3 1
     9    63    17 1
    10     3     4 ar
    11    22    13 ar
    12    17    18 ar
    13     4     5 ar
    14    13     5 ar
    15    13    14 ar
    16    18    19 1
    17    18    14 ar
    18     5     7 1
    19    19    20 1
    20    12     6 1
    21    12    10 1
    22     7     6 1
    23     6     8 1
    24    10    11 1
    25     8     9 1
    26    11     9 1
    27    11    64 1
    28     1    24 1
    29     1    25 1
    30     2    26 1
    31     2    27 1
    32     6    28 1
    33     7    29 1
    34     8    30 1
    35     8    31 1
    36     9    32 1
    37     9    33 1
    38    64    34 1
    39    64    35 1
    40    64    36 1
    41    10    37 1
    42    10    38 1
    43    12    39 1
    44    12    40 1
    45    14    41 1
    46    16    42 1
    47    16    43 1
    48    16    44 1
    49    20    45 1
    50    20    46 1
    51    20    47 1
    52    21    48 1
    53    23    49 1
    54     1    50 1
    55    50    51 1
    56    51    52 1
    57    52    53 1
    58    50    54 1
    59    50    55 1
    60    51    56 1
    61    51    57 1
    62    52    58 1
    63    52    59 1
    64    53    60 1
    65    53    61 1
    66    53    62 1
@<TRIPOS>SUBSTRUCTURE
     1 7KZ         1 TEMP              0 ****  ****    0 ROOT
