@<TRIPOS>MOLECULE
molecule
   36    38     1     0     0
SMALL
bcc


@<TRIPOS>ATOM
      1 CAV          0.0000     0.0000     0.0000 c3         1 7L0      -0.167100
      2 CAU          1.5070     0.0000     0.0000 c          1 7L0       0.650100
      3 OAW          2.1140     0.0000     1.0510 o          1 7L0      -0.531100
      4 NAT          2.1810     0.0020    -1.1660 ns         1 7L0      -0.458400
      5 CAN          3.5780     0.0030    -1.1670 cc         1 7L0       0.645900
      6 NAO          4.3450     0.0020    -0.0810 nc         1 7L0      -0.432300
      7 NAM          4.3390    -0.0010    -2.2410 nd         1 7L0      -0.648100
      8 NAD          5.6710     0.0010    -1.8030 na         1 7L0       0.178000
      9 CAC          6.8600    -0.0010    -2.4580 cd         1 7L0      -0.002300
     10 CAE          5.6250     0.0030    -0.4380 cd         1 7L0       0.031700
     11 CAF          6.8210     0.0020     0.3040 cd         1 7L0      -0.112000
     12 CAG          8.0140     0.0020    -0.3500 cc         1 7L0      -0.084000
     13 CAB          8.0320     0.0010    -1.7620 cc         1 7L0      -0.111000
     14 CAA          9.3270    -0.0010    -2.4870 ca         1 7L0      -0.183300
     15 CAL         10.1960     1.0900    -2.3960 ca         1 7L0       0.020000
     16 CAH          9.6990    -1.0950    -3.2670 ca         1 7L0       0.483200
     17 NAI         10.8480    -1.0980    -3.9120 nb         1 7L0      -0.698000
     18 CAJ         11.6860    -0.0810    -3.8480 ca         1 7L0       0.520200
     19 CAK         11.3910     1.0380    -3.0920 ca         1 7L0      -0.426800
     20 SAP         12.5250     2.3850    -3.0140 sy         1 7L0       1.193300
     21 CAQ         13.5950     1.9950    -1.6010 c3         1 7L0      -0.225300
     22 OAS         13.2540     2.2990    -4.2310 o          1 7L0      -0.612300
     23 OAR         11.7110     3.5130    -2.7260 o          1 7L0      -0.612300
     24 HAV1        -0.3610     0.8860    -0.5080 hc         1 7L0       0.065033
     25 HAV2        -0.3610    -0.8830    -0.5130 hc         1 7L0       0.065033
     26 HAV3        -0.3610    -0.0030     1.0210 hc         1 7L0       0.065033
     27 HAC          6.8770    -0.0020    -3.5410 h4         1 7L0       0.178000
     28 HAF          6.7920     0.0020     1.3870 ha         1 7L0       0.171000
     29 HAG          8.9420     0.0040     0.2090 ha         1 7L0       0.149000
     30 HAL          9.9390     1.9540    -1.7950 ha         1 7L0       0.165000
     31 HAH          9.0380    -1.9490    -3.3440 h4         1 7L0       0.035100
     32 HAJ         12.6200    -0.1250    -4.3940 h4         1 7L0       0.047100
     33 HAQ1        14.4360     2.6760    -1.5860 h1         1 7L0       0.100033
     34 HAQ2        13.0300     2.0970    -0.6820 h1         1 7L0       0.100033
     35 HAQ3        13.9560     0.9770    -1.6920 h1         1 7L0       0.100033
     36 HAT          1.6810     0.0070    -2.0330 hn         1 7L0       0.340500
@<TRIPOS>BOND
     1     1     2 1
     2     2     3 2
     3     2     4 1
     4     4     5 1
     5     5     6 1
     6     5     7 2
     7     6    10 2
     8     7     8 1
     9     8     9 1
    10     8    10 1
    11     9    13 2
    12    10    11 1
    13    11    12 2
    14    12    13 1
    15    13    14 1
    16    14    15 ar
    17    14    16 ar
    18    15    19 ar
    19    16    17 ar
    20    17    18 ar
    21    18    19 ar
    22    19    20 1
    23    20    21 1
    24    20    22 2
    25    20    23 2
    26     1    24 1
    27     1    25 1
    28     1    26 1
    29     9    27 1
    30    11    28 1
    31    12    29 1
    32    15    30 1
    33    16    31 1
    34    18    32 1
    35     4    36 1
    36    21    33 1
    37    21    34 1
    38    21    35 1
@<TRIPOS>SUBSTRUCTURE
     1 7L0         1 TEMP              0 ****  ****    0 ROOT
