@<TRIPOS>MOLECULE
7L0
   36    38     1     0     0
SMALL
bcc


@<TRIPOS>ATOM
      1 CAV          0.0000     0.0000     0.0000 c3         1 7L0      -0.065100
      2 CAU          1.5070     0.0000     0.0000 c          1 7L0       0.539100
      3 OAW          2.1140     0.0000     1.0510 o          1 7L0      -0.568100
      4 NAT          2.1810     0.0020    -1.1660 ns         1 7L0      -0.006400
      5 CAN          3.5780     0.0030    -1.1670 cc         1 7L0       0.507900
      6 NAO          4.3450     0.0020    -0.0810 nc         1 7L0      -0.367300
      7 NAM          4.3390    -0.0010    -2.2410 nd         1 7L0      -0.827100
      8 NAD          5.6710     0.0010    -1.8030 na         1 7L0       0.692000
      9 CAC          6.8600    -0.0010    -2.4580 cd         1 7L0      -0.187300
     10 CAE          5.6250     0.0030    -0.4380 cd         1 7L0      -0.172300
     11 CAF          6.8210     0.0020     0.3040 cd         1 7L0      -0.056000
     12 CAG          8.0140     0.0020    -0.3500 cc         1 7L0      -0.082000
     13 CAB          8.0320     0.0010    -1.7620 cc         1 7L0      -0.059000
     14 CAA          9.3270    -0.0010    -2.4870 ca         1 7L0      -0.190300
     15 CAL         10.1960     1.0900    -2.3960 ca         1 7L0       0.051000
     16 CAH          9.6990    -1.0950    -3.2670 ca         1 7L0       0.467200
     17 NAI         10.8480    -1.0980    -3.9120 nb         1 7L0      -0.602000
     18 CAJ         11.6860    -0.0810    -3.8480 ca         1 7L0       0.510200
     19 CAK         11.3910     1.0380    -3.0920 ca         1 7L0      -0.282800
     20 SAP         12.5250     2.3850    -3.0140 sy         1 7L0       0.880300
     21 CAQ         13.5950     1.9950    -1.6010 c3         1 7L0       0.030700
     22 OAS         13.2540     2.2990    -4.2310 o          1 7L0      -0.582300
     23 OAR         11.7110     3.5130    -2.7260 o          1 7L0      -0.582300
     24 HAV1        -0.3610     0.8860    -0.5080 hc         1 7L0       0.024700
     25 HAV2        -0.3610    -0.8830    -0.5130 hc         1 7L0       0.024700
     26 HAV3        -0.3610    -0.0030     1.0210 hc         1 7L0       0.024700
     27 HAC          6.8770    -0.0020    -3.5410 h4         1 7L0       0.149000
     28 HAF          6.7920     0.0020     1.3870 ha         1 7L0       0.134000
     29 HAG          8.9420     0.0040     0.2090 ha         1 7L0       0.118000
     30 HAL          9.9390     1.9540    -1.7950 ha         1 7L0       0.133000
     31 HAH          9.0380    -1.9490    -3.3440 h4         1 7L0      -0.014900
     32 HAJ         12.6200    -0.1250    -4.3940 h4         1 7L0       0.002100
     33 HAQ1        14.4360     2.6760    -1.5860 h1         1 7L0       0.061033
     34 HAQ2        13.0300     2.0970    -0.6820 h1         1 7L0       0.061033
     35 HAQ3        13.9560     0.9770    -1.6920 h1         1 7L0       0.061033
     36 HAT          1.6810     0.0070    -2.0330 hn         1 7L0       0.175500
@<TRIPOS>BOND
     1     1     2 1   
     2     1    24 1   
     3     1    25 1   
     4     1    26 1   
     5     2     3 2   
     6     2     4 1   
     7     4     5 1   
     8     4    36 1   
     9     5     6 1   
    10     5     7 2   
    11     6    10 2   
    12     7     8 1   
    13     8     9 1   
    14     8    10 1   
    15     9    13 2   
    16     9    27 1   
    17    10    11 1   
    18    11    12 2   
    19    11    28 1   
    20    12    13 1   
    21    12    29 1   
    22    13    14 1   
    23    14    15 ar  
    24    14    16 ar  
    25    15    19 ar  
    26    15    30 1   
    27    16    17 ar  
    28    16    31 1   
    29    17    18 ar  
    30    18    19 ar  
    31    18    32 1   
    32    19    20 1   
    33    20    21 1   
    34    20    22 2   
    35    20    23 2   
    36    21    33 1   
    37    21    34 1   
    38    21    35 1   
@<TRIPOS>SUBSTRUCTURE
     1 7L0         1 TEMP              0 ****  ****    0 ROOT
