@<TRIPOS>MOLECULE
7L3
   43    44     1     0     0
SMALL
bcc


@<TRIPOS>ATOM
      1 CAV          0.0000     0.0000     0.0000 c3         1 7L3       0.007567
      2 CAU          1.5310     0.0000     0.0000 c3         1 7L3      -0.029700
      3 CAW          2.0400     0.0000     1.4430 c3         1 7L3       0.007567
      4 CAX          2.0410    -1.2490    -0.7210 c3         1 7L3       0.007567
      5 CAR          2.0330     1.2300    -0.7100 ca         1 7L3      -0.002300
      6 CAS          3.3920     1.4490    -0.8360 ca         1 7L3      -0.133500
      7 CAT          3.8530     2.5770    -1.4880 ca         1 7L3       0.011500
      8 CAQ          1.1340     2.1380    -1.2400 ca         1 7L3      -0.133500
      9 CAP          1.5960     3.2660    -1.8930 ca         1 7L3       0.011500
     10 CAN          2.9550     3.4870    -2.0130 ca         1 7L3      -0.142500
     11 SAL          3.5420     4.9260    -2.8440 sy         1 7L3       1.107700
     12 OAM          4.8570     4.6230    -3.2900 o          1 7L3      -0.588300
     13 OAO          2.5010     5.3380    -3.7190 o          1 7L3      -0.588300
     14 NAK          3.6980     6.1200    -1.7070 ne         1 7L3      -0.561300
     15 CAB          4.1230     7.3090    -2.0590 cd         1 7L3       0.621100
     16 SAA          4.5850     7.8620    -3.6810 ss         1 7L3      -0.184400
     17 CAE          4.9870     9.5070    -3.1550 cc         1 7L3       0.172600
     18 SAF          5.5700    10.8280    -4.1630 sy         1 7L3       0.921000
     19 OAG          4.7830    10.8080    -5.3470 o          1 7L3      -0.468300
     20 OAH          5.6710    11.9650    -3.3170 o          1 7L3      -0.468300
     21 NAI          7.1150    10.4490    -4.6240 nz         1 7L3      -0.126500
     22 NAD          4.7670     9.5400    -1.8870 n2         1 7L3      -0.270400
     23 NAC          4.3040     8.4040    -1.2620 na         1 7L3      -0.051700
     24 CAJ          4.0240     8.3700     0.1760 c3         1 7L3       0.211100
     25 H1          -0.3610    -0.0110    -1.0210 hc         1 7L3       0.010589
     26 H2          -0.3610    -0.8790     0.5200 hc         1 7L3       0.010589
     27 H3          -0.3610     0.8900     0.5010 hc         1 7L3       0.010589
     28 H4           1.8010     0.9480     1.9100 hc         1 7L3       0.010589
     29 H5           1.5650    -0.8030     1.9930 hc         1 7L3       0.010589
     30 H6           3.1130    -0.1450     1.4470 hc         1 7L3       0.010589
     31 H7           1.5240    -2.1220    -0.3400 hc         1 7L3       0.010589
     32 H8           1.8540    -1.1540    -1.7840 hc         1 7L3       0.010589
     33 H9           3.1050    -1.3560    -0.5500 hc         1 7L3       0.010589
     34 H10          4.0960     0.7360    -0.4240 ha         1 7L3       0.127500
     35 H11          4.9180     2.7500    -1.5840 ha         1 7L3       0.120500
     36 H12          0.0690     1.9640    -1.1460 ha         1 7L3       0.127500
     37 H13          0.8920     3.9780    -2.3070 ha         1 7L3       0.120500
     38 H15          7.1070     9.5960    -5.1480 hn         1 7L3       0.317800
     39 H16          7.6870    10.3360    -3.8110 hn         1 7L3       0.317800
     40 H17          3.0060     8.0380     0.3380 h1         1 7L3       0.042367
     41 H18          4.7090     7.6840     0.6610 h1         1 7L3       0.042367
     42 H19          4.1520     9.3610     0.5930 h1         1 7L3       0.042367
     43 HAI3         7.4770    11.1760    -5.2090 hn         1 7L3       0.317800
@<TRIPOS>BOND
     1     1     2 1   
     2     1    25 1   
     3     1    26 1   
     4     1    27 1   
     5     2     3 1   
     6     2     4 1   
     7     2     5 1   
     8     3    28 1   
     9     3    29 1   
    10     3    30 1   
    11     4    31 1   
    12     4    32 1   
    13     4    33 1   
    14     5     6 ar  
    15     5     8 ar  
    16     6     7 ar  
    17     6    34 1   
    18     7    10 ar  
    19     7    35 1   
    20     8     9 ar  
    21     8    36 1   
    22     9    10 ar  
    23     9    37 1   
    24    10    11 1   
    25    11    12 2   
    26    11    13 2   
    27    11    14 1   
    28    14    15 2   
    29    15    16 1   
    30    15    23 1   
    31    16    17 1   
    32    17    18 1   
    33    17    22 2   
    34    18    19 2   
    35    18    20 2   
    36    18    21 1   
    37    21    38 1   
    38    21    39 1   
    39    21    43 1   
    40    22    23 1   
    41    23    24 1   
    42    24    40 1   
    43    24    41 1   
    44    24    42 1   
@<TRIPOS>SUBSTRUCTURE
     1 7L3         1 TEMP              0 ****  ****    0 ROOT
