@<TRIPOS>MOLECULE
molecule
   43    44     1     0     0
SMALL
bcc


@<TRIPOS>ATOM
      1 CAV          0.0000     0.0000     0.0000 c3         1 7L3      -0.082433
      2 CAU          1.5310     0.0000     0.0000 c3         1 7L3      -0.037700
      3 CAW          2.0400     0.0000     1.4430 c3         1 7L3      -0.082433
      4 CAX          2.0410    -1.2490    -0.7210 c3         1 7L3      -0.082433
      5 CAR          2.0330     1.2300    -0.7100 ca         1 7L3       0.003700
      6 CAS          3.3920     1.4490    -0.8360 ca         1 7L3      -0.147500
      7 CAT          3.8530     2.5770    -1.4880 ca         1 7L3      -0.021500
      8 CAQ          1.1340     2.1380    -1.2400 ca         1 7L3      -0.147500
      9 CAP          1.5960     3.2660    -1.8930 ca         1 7L3      -0.021500
     10 CAN          2.9550     3.4870    -2.0130 ca         1 7L3      -0.290500
     11 SAL          3.5420     4.9260    -2.8440 sy         1 7L3       1.428700
     12 OAM          4.8570     4.6230    -3.2900 o          1 7L3      -0.630300
     13 OAO          2.5010     5.3380    -3.7190 o          1 7L3      -0.630300
     14 NAK          3.6980     6.1200    -1.7070 ne         1 7L3      -0.750300
     15 CAB          4.1230     7.3090    -2.0590 cd         1 7L3       0.758100
     16 SAA          4.5850     7.8620    -3.6810 ss         1 7L3      -0.126400
     17 CAE          4.9870     9.5070    -3.1550 cc         1 7L3       0.053600
     18 SAF          5.5700    10.8280    -4.1630 sy         1 7L3       1.228000
     19 OAG          4.7830    10.8080    -5.3470 o          1 7L3      -0.480300
     20 OAH          5.6710    11.9650    -3.3170 o          1 7L3      -0.480300
     21 NAI          7.1150    10.4490    -4.6240 nz         1 7L3      -0.812500
     22 NAD          4.7670     9.5400    -1.8870 n2         1 7L3      -0.224400
     23 NAC          4.3040     8.4040    -1.2620 na         1 7L3      -0.386700
     24 CAJ          4.0240     8.3700     0.1760 c3         1 7L3       0.231100
     25 H1          -0.3610    -0.0030    -1.0210 hc         1 7L3       0.042033
     26 H2          -0.3610    -0.8830     0.5130 hc         1 7L3       0.042033
     27 H3          -0.3610     0.8860     0.5080 hc         1 7L3       0.042033
     28 H4           1.8050     0.9490     1.9090 hc         1 7L3       0.042033
     29 H5           3.1130    -0.1490     1.4480 hc         1 7L3       0.042033
     30 H6           1.5620    -0.8010     1.9940 hc         1 7L3       0.042033
     31 H7           1.5620    -2.1270    -0.3050 hc         1 7L3       0.042033
     32 H8           3.1130    -1.3280    -0.5930 hc         1 7L3       0.042033
     33 H9           1.8080    -1.1770    -1.7770 hc         1 7L3       0.042033
     34 H10          4.0960     0.7360    -0.4240 ha         1 7L3       0.150000
     35 H11          4.9180     2.7500    -1.5840 ha         1 7L3       0.150000
     36 H12          0.0690     1.9640    -1.1460 ha         1 7L3       0.150000
     37 H13          0.8920     3.9780    -2.3070 ha         1 7L3       0.150000
     38 H15          7.1020     9.6190    -5.1840 hn         1 7L3       0.499467
     39 H16          7.4990    11.2040    -5.1570 hn         1 7L3       0.499467
     40 H17          4.6420     7.6140     0.6460 h1         1 7L3       0.085033
     41 H18          2.9800     8.1320     0.3350 h1         1 7L3       0.085033
     42 H19          4.2450     9.3370     0.6100 h1         1 7L3       0.085033
     43 HAI3         7.6820    10.3150    -3.8110 hn         1 7L3       0.499467
@<TRIPOS>BOND
     1     4     2 1   
     2    24    23 1   
     3     8     9 ar  
     4     8     5 ar  
     5     9    10 ar  
     6     2     3 1   
     7     2     5 1   
     8     2     1 1   
     9     5     6 ar  
    10    12    11 2   
    11    14    11 1   
    12    14    15 2   
    13    10    11 1   
    14    10     7 ar  
    15     6     7 ar  
    16    11    13 2   
    17    23    15 1   
    18    23    22 1   
    19    15    16 1   
    20    22    17 2   
    21    16    17 1   
    22    17    18 1   
    23    18    20 2   
    24    18    21 1   
    25    18    19 2   
    26     1    25 1   
    27     1    26 1   
    28     1    27 1   
    29     3    28 1   
    30     3    29 1   
    31     3    30 1   
    32     4    31 1   
    33     4    32 1   
    34     4    33 1   
    35     6    34 1   
    36     7    35 1   
    37     8    36 1   
    38     9    37 1   
    39    21    38 1   
    40    21    39 1   
    41    24    40 1   
    42    24    41 1   
    43    24    42 1   
    44    43    21 1   
@<TRIPOS>SUBSTRUCTURE
     1 7L3         1 TEMP              0 ****  ****    0 ROOT
