@<TRIPOS>MOLECULE
molecule
   28    30     1     0     0
SMALL
bcc


@<TRIPOS>ATOM
      1 C1           0.0000     0.0000     0.0000 ca         1 7L4      -0.115000
      2 C2           1.3830     0.0000     0.0000 ca         1 7L4      -0.136500
      3 C3           2.0760     0.0000     1.1940 ca         1 7L4      -0.097500
      4 C4           1.3790    -0.0000     2.4000 cp         1 7L4      -0.153500
      5 C5          -0.0140     0.0010     2.3950 ca         1 7L4      -0.097500
      6 C6          -0.6970     0.0010     1.1950 ca         1 7L4      -0.136500
      7 C7           2.1180    -0.0000     3.6860 cp         1 7L4       0.517800
      8 C8           1.3980     0.0010     4.8880 ca         1 7L4      -0.305300
      9 C9           2.0700    -0.0010     6.0820 ca         1 7L4       0.166100
     10 C10          3.4840    -0.0020     6.0550 ca         1 7L4      -0.177300
     11 C11          4.2350    -0.0040     7.2380 ca         1 7L4      -0.093000
     12 C12          5.5960    -0.0060     7.1730 ca         1 7L4      -0.137000
     13 C13          6.2520    -0.0060     5.9450 ca         1 7L4      -0.110000
     14 C14          5.5540    -0.0040     4.7760 ca         1 7L4      -0.173300
     15 C15          4.1480    -0.0020     4.8030 ca         1 7L4       0.441600
     16 N16          3.4390    -0.0060     3.6710 nb         1 7L4      -0.696000
     17 O17          1.3960     0.0010     7.2600 oh         1 7L4      -0.512100
     18 H1          -0.5400     0.0000    -0.9390 ha         1 7L4       0.130000
     19 H2           1.9230    -0.0000    -0.9390 ha         1 7L4       0.132000
     20 H6          -1.7800     0.0010     1.1900 ha         1 7L4       0.132000
     21 H3           3.1590    -0.0000     1.1920 ha         1 7L4       0.143000
     22 H5          -0.5610     0.0010     3.3300 ha         1 7L4       0.143000
     23 H8           0.3190    -0.0910     4.8730 ha         1 7L4       0.148000
     24 H17          0.8970     0.7970     7.3360 ho         1 7L4       0.429000
     25 H11          3.7360    -0.0040     8.2000 ha         1 7L4       0.145000
     26 H12          6.1750    -0.0070     8.0890 ha         1 7L4       0.132000
     27 H13          7.3350    -0.0070     5.9190 ha         1 7L4       0.133000
     28 H14          6.0790    -0.0040     3.8290 ha         1 7L4       0.149000
@<TRIPOS>BOND
     1     1     2 ar
     2     1     6 ar
     3     2     3 ar
     4     3     4 ar
     5     4     5 ar
     6     4     7 1
     7     5     6 ar
     8     7     8 ar
     9     7    16 ar
    10     8     9 ar
    11     9    10 ar
    12     9    17 1
    13    10    11 ar
    14    10    15 ar
    15    11    12 ar
    16    12    13 ar
    17    13    14 ar
    18    14    15 ar
    19    15    16 ar
    20     1    18 1
    21     2    19 1
    22     6    20 1
    23     3    21 1
    24     5    22 1
    25     8    23 1
    26    17    24 1
    27    11    25 1
    28    12    26 1
    29    13    27 1
    30    14    28 1
@<TRIPOS>SUBSTRUCTURE
     1 7L4         1 TEMP              0 ****  ****    0 ROOT
