@<TRIPOS>MOLECULE
7L4
   28    30     1     0     0
SMALL
bcc


@<TRIPOS>ATOM
      1 C1         -0.0730    0.0350    0.0100 ca        1 7L4     -0.119000
      2 C2          1.1980   -0.5390    0.0310 ca        1 7L4     -0.136500
      3 C3          1.9380   -0.5660    1.2130 ca        1 7L4     -0.101000
      4 C4          1.4010   -0.0210    2.3860 cp        1 7L4     -0.152500
      5 C5          0.1260    0.5600    2.3610 ca        1 7L4     -0.101000
      6 C6         -0.6060    0.5870    1.1750 ca        1 7L4     -0.136500
      7 C7          2.1640   -0.0560    3.6500 cp        1 7L4      0.514800
      8 C8          1.4440   -0.4000    4.8420 ca        1 7L4     -0.346300
      9 C9          2.1330   -0.4420    6.0380 ca        1 7L4      0.176100
     10 C10         3.5340   -0.1430    6.0750 ca        1 7L4     -0.165300
     11 C11         4.2920   -0.1650    7.2700 ca        1 7L4     -0.086000
     12 C12         5.6340    0.1300    7.2430 ca        1 7L4     -0.141000
     13 C13         6.2640    0.4580    6.0200 ca        1 7L4     -0.112000
     14 C14         5.5580    0.4870    4.8440 ca        1 7L4     -0.177300
     15 C15         4.1560    0.1850    4.8310 ca        1 7L4      0.423600
     16 N16         3.4670    0.2230    3.6360 nb        1 7L4     -0.677000
     17 O17         1.5450   -0.7630    7.2350 oh        1 7L4     -0.490100
     18 H1         -0.6530    0.0560   -0.9240 ha        1 7L4      0.132000
     19 H2          1.6220   -0.9710   -0.8880 ha        1 7L4      0.133500
     20 H6         -1.6040    1.0470    1.1590 ha        1 7L4      0.133500
     21 H3          2.9440   -1.0110    1.2220 ha        1 7L4      0.141500
     22 H5         -0.2930    1.0070    3.2750 ha        1 7L4      0.141500
     23 H8          0.3730   -0.6330    4.7820 ha        1 7L4      0.148000
     24 H17         0.6090   -0.9510    7.0700 ho        1 7L4      0.426000
     25 H11         3.7790   -0.4220    8.2100 ha        1 7L4      0.149000
     26 H12         6.2290    0.1160    8.1680 ha        1 7L4      0.136000
     27 H13         7.3400    0.6910    6.0240 ha        1 7L4      0.135000
     28 H14         6.0540    0.7440    3.8950 ha        1 7L4      0.151000
@<TRIPOS>BOND
     1    1    2 ar  
     2    1    6 ar  
     3    1   18 1   
     4    2    3 ar  
     5    2   19 1   
     6    3    4 ar  
     7    3   21 1   
     8    4    5 ar  
     9    4    7 1   
    10    5    6 ar  
    11    5   22 1   
    12    6   20 1   
    13    7    8 ar  
    14    7   16 ar  
    15    8    9 ar  
    16    8   23 1   
    17    9   10 ar  
    18    9   17 1   
    19   10   11 ar  
    20   10   15 ar  
    21   11   12 ar  
    22   11   25 1   
    23   12   13 ar  
    24   12   26 1   
    25   13   14 ar  
    26   13   27 1   
    27   14   15 ar  
    28   14   28 1   
    29   15   16 ar  
    30   17   24 1   
@<TRIPOS>SUBSTRUCTURE
     1 7L4         1 TEMP              0 ****  ****    0 ROOT
