@<TRIPOS>MOLECULE
molecule
   60    62     1     0     0
SMALL
bcc


@<TRIPOS>ATOM
      1 CAQ          0.0000     0.0000     0.0000 c3         1 7L5      -0.074400
      2 CAM          1.5300     0.0000     0.0000 c3         1 7L5       0.158800
      3 NAT          2.0200     0.0000     1.3850 n7         1 7L5      -0.818200
      4 CAN          1.5870     1.2070     2.1010 c3         1 7L5       0.158800
      5 CAR          0.0590     1.2430     2.1640 c3         1 7L5      -0.074400
      6 CBC         -0.5060     1.2420     0.7400 c3         1 7L5      -0.072700
      7 CAP         -2.0340     1.2160     0.7960 c3         1 7L5      -0.077400
      8 CAL         -2.5440     2.5150     1.4240 c3         1 7L5      -0.080400
      9 CAO         -4.0720     2.4900     1.4800 c3         1 7L5      -0.045100
     10 CAV         -4.5740     3.7700     2.0990 ca         1 7L5      -0.007300
     11 CAK         -4.8510     4.8620     1.2980 ca         1 7L5      -0.147000
     12 CAY         -5.3110     6.0370     1.8660 ca         1 7L5       0.124400
     13 ClI         -5.6600     7.4080     0.8590 cl         1 7L5      -0.049900
     14 CAJ         -4.7610     3.8490     3.4660 ca         1 7L5      -0.147000
     15 CAX         -5.2210     5.0230     4.0340 ca         1 7L5       0.124400
     16 ClH         -5.4560     5.1230     5.7510 cl         1 7L5      -0.049900
     17 CBA         -5.4930     6.1180     3.2330 ca         1 7L5      -0.318500
     18 SBF         -6.0780     7.6150     3.9570 sy         1 7L5       1.420200
     19 OAD         -5.6490     7.6010     5.3120 o          1 7L5      -0.611800
     20 OAE         -5.7480     8.6560     3.0480 o          1 7L5      -0.611800
     21 NBD         -7.7320     7.5300     3.9900 nh         1 7L5      -0.681900
     22 CBB         -8.4120     6.9570     5.1540 c3         1 7L5       0.683100
     23 FAG         -9.2560     7.9180     5.7210 f          1 7L5      -0.232800
     24 FAF         -9.1690     5.8510     4.7530 f          1 7L5      -0.232800
     25 CAZ         -8.4830     8.0090     2.9000 cc         1 7L5      -0.113700
     26 CAW         -8.9510     9.2740     2.7460 cd         1 7L5      -0.019600
     27 CAB         -8.7610    10.4160     3.7090 c3         1 7L5      -0.025800
     28 NBE         -9.6220     9.3210     1.5640 na         1 7L5       0.070400
     29 CAC        -10.2910    10.4950     1.0000 c3         1 7L5       0.067600
     30 NAS         -9.5590     8.0480     0.9840 nd         1 7L5      -0.507800
     31 CAU         -8.8750     7.2650     1.7780 cc         1 7L5       0.359600
     32 CAA         -8.5640     5.8110     1.5300 c3         1 7L5      -0.112400
     33 HAQ1        -0.3600    -0.8900     0.5010 hc         1 7L5       0.049450
     34 HAQ2        -0.3600     0.0170    -1.0210 hc         1 7L5       0.049450
     35 HAM1         1.8890    -0.8860    -0.5090 h1         1 7L5       0.031200
     36 HAM2         1.8890     0.8860    -0.5090 h1         1 7L5       0.031200
     37 HBC         -0.1730     2.1320     0.2200 hc         1 7L5       0.049700
     38 HAT          3.0200    -0.0470     1.3850 hn         1 7L5       0.352800
     39 HAN1         1.9460     2.0840     1.5760 h1         1 7L5       0.031200
     40 HAN2         1.9880     1.1920     3.1070 h1         1 7L5       0.031200
     41 HAR1        -0.3010     0.3690     2.6950 hc         1 7L5       0.049450
     42 HAR2        -0.2600     2.1420     2.6770 hc         1 7L5       0.049450
     43 HAP1        -2.4310     1.1210    -0.2080 hc         1 7L5       0.044700
     44 HAP2        -2.3600     0.3740     1.3940 hc         1 7L5       0.044700
     45 HAL1        -2.1480     2.6110     2.4280 hc         1 7L5       0.050200
     46 HAL2        -2.2180     3.3580     0.8260 hc         1 7L5       0.050200
     47 HAO1        -4.4680     2.3950     0.4760 hc         1 7L5       0.057700
     48 HAO2        -4.3970     1.6470     2.0780 hc         1 7L5       0.057700
     49 HAK         -4.6790     4.8080     0.2300 ha         1 7L5       0.154000
     50 HAJ         -4.5800     2.9810     4.0880 ha         1 7L5       0.154000
     51 HBB         -7.6760     6.6450     5.8850 h3         1 7L5       0.113700
     52 HAB1        -8.3850    11.2800     3.1740 hc         1 7L5       0.056367
     53 HAB2        -9.7100    10.6620     4.1700 hc         1 7L5       0.056367
     54 HAB3        -8.0510    10.1290     4.4750 hc         1 7L5       0.056367
     55 HAC1       -11.0380    10.8560     1.6970 h1         1 7L5       0.056367
     56 HAC2       -10.7690    10.2250     0.0660 h1         1 7L5       0.056367
     57 HAC3        -9.5600    11.2750     0.8190 h1         1 7L5       0.056367
     58 HAA1        -8.0030     5.7140     0.6080 hc         1 7L5       0.052033
     59 HAA2        -9.4890     5.2530     1.4510 hc         1 7L5       0.052033
     60 HAA3        -7.9760     5.4220     2.3530 hc         1 7L5       0.052033
@<TRIPOS>BOND
     1     1     2 1
     2     1     6 1
     3     2     3 1
     4     3     4 1
     5     4     5 1
     6     5     6 1
     7     6     7 1
     8     7     8 1
     9     8     9 1
    10     9    10 1
    11    10    11 ar
    12    10    14 ar
    13    11    12 ar
    14    12    13 1
    15    12    17 ar
    16    14    15 ar
    17    15    16 1
    18    15    17 ar
    19    17    18 1
    20    18    19 2
    21    18    20 2
    22    18    21 1
    23    21    22 1
    24    21    25 1
    25    22    23 1
    26    22    24 1
    27    25    26 2
    28    25    31 1
    29    26    27 1
    30    26    28 1
    31    28    29 1
    32    28    30 1
    33    30    31 2
    34    31    32 1
    35     1    33 1
    36     1    34 1
    37     2    35 1
    38     2    36 1
    39     6    37 1
    40     3    38 1
    41     4    39 1
    42     4    40 1
    43     5    41 1
    44     5    42 1
    45     7    43 1
    46     7    44 1
    47     8    45 1
    48     8    46 1
    49     9    47 1
    50     9    48 1
    51    11    49 1
    52    14    50 1
    53    22    51 1
    54    27    52 1
    55    27    53 1
    56    27    54 1
    57    29    55 1
    58    29    56 1
    59    29    57 1
    60    32    58 1
    61    32    59 1
    62    32    60 1
@<TRIPOS>SUBSTRUCTURE
     1 7L5         1 TEMP              0 ****  ****    0 ROOT
