@<TRIPOS>MOLECULE
molecule
   57    60     1     0     0
SMALL
bcc


@<TRIPOS>ATOM
      1 C4           0.0000     0.0000     0.0000 ca         1 7L6       0.512600
      2 C5           1.4170     0.0000     0.0000 ca         1 7L6      -0.342600
      3 C6           2.0880     0.0000     1.2470 ca         1 7L6       0.768200
      4 C8          -2.8600    -0.0620     4.5990 c3         1 7L6       0.133400
      5 N1           1.3590     0.0000     2.3540 nb         1 7L6      -0.846000
      6 C3          -1.0420     1.0700     5.6710 c3         1 7L6       0.133400
      7 N3          -0.6460    -0.0010     1.1770 nb         1 7L6      -0.826000
      8 CAJ         -0.2870     1.1420     4.3420 c3         1 7L6       0.139800
      9 NAR         -0.6730    -0.0000     3.5020 nh         1 7L6      -0.684300
     10 C2           0.0290    -0.0010     2.3100 ca         1 7L6       0.914900
     11 CAE         -0.6880    -0.0070    -1.2190 ca         1 7L6      -0.280300
     12 CAW          0.0210    -0.0070    -2.4000 ca         1 7L6       0.169100
     13 OAT         -0.6450    -0.0120    -3.5840 os         1 7L6      -0.309900
     14 CAB         -2.0720    -0.0180    -3.5260 c3         1 7L6       0.124700
     15 CAX          1.4230     0.0000    -2.3920 ca         1 7L6       0.102100
     16 OAU          2.1010     0.0010    -3.5710 os         1 7L6      -0.313900
     17 CAC          3.5290     0.0070    -3.4980 c3         1 7L6       0.127700
     18 CAF          2.1140    -0.0000    -1.2140 ca         1 7L6      -0.161000
     19 NAS          3.4660     0.0000     1.3080 nu         1 7L6      -0.894900
     20 CBB          4.1410    -0.0000     2.6070 c3         1 7L6       0.241500
     21 CAL          5.5390     0.6070     2.4570 c3         1 7L6      -0.094900
     22 CAM          4.2690    -1.4370     3.1190 c3         1 7L6      -0.094900
     23 CAO          5.0290    -1.4370     4.4470 c3         1 7L6       0.166800
     24 NBC          6.3600    -0.8480     4.2500 n3         1 7L6      -0.735600
     25 CAD          7.1690    -0.9570     5.4720 c3         1 7L6       0.153100
     26 CAN          6.2630     0.5490     3.8050 c3         1 7L6       0.166800
     27 C1          -2.1240    -0.0010     3.2580 c3         1 7L6       0.139800
     28 O3          -2.4490     1.0390     5.4140 os         1 7L6      -0.426600
     29 H2          -2.6190    -0.9920     5.1000 h1         1 7L6       0.054700
     30 H3          -0.7520     0.1720     6.2020 h1         1 7L6       0.054700
     31 H4          -0.8040     1.9420     6.2680 h1         1 7L6       0.054700
     32 H5          -0.5390     2.0650     3.8330 h1         1 7L6       0.061450
     33 H6           0.7790     1.1060     4.5310 h1         1 7L6       0.061450
     34 H7          -1.7640    -0.1380    -1.2330 ha         1 7L6       0.161000
     35 H8          -2.4090    -0.9180    -3.0270 h1         1 7L6       0.045033
     36 H9          -2.4740     0.0110    -4.5310 h1         1 7L6       0.045033
     37 H10         -2.4140     0.8500    -2.9750 h1         1 7L6       0.045033
     38 H11          3.8590     0.8930    -2.9690 h1         1 7L6       0.040033
     39 H12          3.8670    -0.8760    -2.9690 h1         1 7L6       0.040033
     40 H13          3.9410     0.0090    -4.4990 h1         1 7L6       0.040033
     41 H14          3.1970     0.0050    -1.2190 ha         1 7L6       0.133000
     42 H15          4.0040     0.0160     0.4650 hn         1 7L6       0.447800
     43 H16          3.5700     0.5850     3.3180 h1         1 7L6       0.079700
     44 H17          5.4520     1.6390     2.1390 hc         1 7L6       0.056450
     45 H18          6.1000     0.0430     1.7220 hc         1 7L6       0.056450
     46 H19          4.8110    -2.0310     2.3930 hc         1 7L6       0.056450
     47 H20          3.2800    -1.8550     3.2700 hc         1 7L6       0.056450
     48 H21          5.1350    -2.4550     4.8010 h1         1 7L6       0.037450
     49 H22          4.4810    -0.8510     5.1750 h1         1 7L6       0.037450
     50 H24          8.1560    -0.5500     5.2890 h1         1 7L6       0.032367
     51 H25          6.6920    -0.4040     6.2710 h1         1 7L6       0.032367
     52 H26          7.2550    -1.9990     5.7550 h1         1 7L6       0.032367
     53 H27          7.2590     0.9620     3.6960 h1         1 7L6       0.037450
     54 H28          5.7070     1.1220     4.5370 h1         1 7L6       0.037450
     55 H29         -2.3890    -0.8650     2.6610 h1         1 7L6       0.061450
     56 H30         -2.4020     0.9060     2.7350 h1         1 7L6       0.061450
     57 H1          -3.9280    -0.0040     4.4260 h1         1 7L6       0.054700
@<TRIPOS>BOND
     1    17    16 1   
     2    16    15 1   
     3    15    12 ar  
     4    15    18 ar  
     5    13    14 1   
     6    13    12 1   
     7    12    11 ar  
     8    18     2 ar  
     9     2     1 ar  
    10     2     3 ar  
    11    11     1 ar  
    12    19     3 1   
    13    19    20 1   
    14    21    20 1   
    15    21    26 1   
    16     1     7 ar  
    17     3     5 ar  
    18    24    26 1   
    19    24    25 1   
    20    24    23 1   
    21    22    20 1   
    22    22    23 1   
    23     7    10 ar  
    24     5    10 ar  
    25    10     9 1   
    26     9    27 1   
    27     9     8 1   
    28    27     4 1   
    29     8     6 1   
    30     6    28 1   
    31     4    28 1   
    32     4    57 1   
    33     4    29 1   
    34     6    30 1   
    35     6    31 1   
    36     8    32 1   
    37     8    33 1   
    38    11    34 1   
    39    14    35 1   
    40    14    36 1   
    41    14    37 1   
    42    17    38 1   
    43    17    39 1   
    44    17    40 1   
    45    18    41 1   
    46    19    42 1   
    47    20    43 1   
    48    21    44 1   
    49    21    45 1   
    50    22    46 1   
    51    22    47 1   
    52    23    48 1   
    53    23    49 1   
    54    25    50 1   
    55    25    51 1   
    56    25    52 1   
    57    26    53 1   
    58    26    54 1   
    59    27    55 1   
    60    27    56 1   
@<TRIPOS>SUBSTRUCTURE
     1 7L6         1 TEMP              0 ****  ****    0 ROOT
