@<TRIPOS>MOLECULE
7L6
   57    60     1     0     0
SMALL
bcc


@<TRIPOS>ATOM
      1 C4           0.0000     0.0000     0.0000 ca         1 7L6       0.482600
      2 C5           1.4170     0.0000     0.0000 ca         1 7L6      -0.335600
      3 C6           2.0880     0.0000     1.2470 ca         1 7L6       0.582200
      4 C8          -2.8600    -0.0620     4.5990 c3         1 7L6       0.210400
      5 N1           1.3590     0.0000     2.3540 nb         1 7L6      -0.744000
      6 C3          -1.0420     1.0700     5.6710 c3         1 7L6       0.210400
      7 N3          -0.6460    -0.0010     1.1770 nb         1 7L6      -0.734000
      8 CAJ         -0.2870     1.1420     4.3420 c3         1 7L6       0.102800
      9 NAR         -0.6730    -0.0000     3.5020 nh         1 7L6      -0.448300
     10 C2           0.0290    -0.0010     2.3100 ca         1 7L6       0.754900
     11 CAE         -0.6880    -0.0070    -1.2190 ca         1 7L6      -0.274300
     12 CAW          0.0210    -0.0070    -2.4000 ca         1 7L6       0.173100
     13 OAT         -0.6450    -0.0120    -3.5840 os         1 7L6      -0.292900
     14 CAB         -2.0720    -0.0180    -3.5260 c3         1 7L6       0.239700
     15 CAX          1.4230     0.0000    -2.3920 ca         1 7L6       0.107100
     16 OAU          2.1010     0.0010    -3.5710 os         1 7L6      -0.292900
     17 CAC          3.5290     0.0070    -3.4980 c3         1 7L6       0.241700
     18 CAF          2.1140    -0.0000    -1.2140 ca         1 7L6      -0.154000
     19 NAS          3.4660     0.0000     1.3080 nu         1 7L6      -0.475900
     20 CBB          4.1410    -0.0000     2.6070 c3         1 7L6       0.127500
     21 CAL          5.5390     0.6070     2.4570 c3         1 7L6      -0.040900
     22 CAM          4.2690    -1.4370     3.1190 c3         1 7L6      -0.040900
     23 CAO          5.0290    -1.4370     4.4470 c3         1 7L6       0.162300
     24 NBC          6.3600    -0.8480     4.2500 n3         1 7L6      -0.548600
     25 CAD          7.1690    -0.9570     5.4720 c3         1 7L6       0.189100
     26 CAN          6.2630     0.5490     3.8050 c3         1 7L6       0.162300
     27 C1          -2.1240    -0.0010     3.2580 c3         1 7L6       0.102800
     28 O3          -2.4490     1.0390     5.4140 os         1 7L6      -0.412600
     29 H2          -2.6190    -0.9920     5.1000 h1         1 7L6       0.012700
     30 H3          -0.7520     0.1720     6.2020 h1         1 7L6       0.012700
     31 H4          -0.8040     1.9420     6.2680 h1         1 7L6       0.012700
     32 H5          -0.5390     2.0650     3.8330 h1         1 7L6       0.033200
     33 H6           0.7790     1.1060     4.5310 h1         1 7L6       0.033200
     34 H7          -1.7640    -0.1380    -1.2330 ha         1 7L6       0.141000
     35 H8          -2.4090    -0.9180    -3.0270 h1         1 7L6       0.000700
     36 H9          -2.4740     0.0110    -4.5310 h1         1 7L6       0.000700
     37 H10         -2.4140     0.8500    -2.9750 h1         1 7L6       0.000700
     38 H11          3.8590     0.8930    -2.9690 h1         1 7L6      -0.003967
     39 H12          3.8670    -0.8760    -2.9690 h1         1 7L6      -0.003967
     40 H13          3.9410     0.0090    -4.4990 h1         1 7L6      -0.003967
     41 H14          3.1970     0.0050    -1.2190 ha         1 7L6       0.121000
     42 H15          4.0040     0.0160     0.4650 hn         1 7L6       0.297800
     43 H16          3.5700     0.5850     3.3180 h1         1 7L6       0.057700
     44 H17          5.4520     1.6390     2.1390 hc         1 7L6       0.026950
     45 H18          6.1000     0.0430     1.7220 hc         1 7L6       0.026950
     46 H19          4.8110    -2.0310     2.3930 hc         1 7L6       0.026950
     47 H20          3.2800    -1.8550     3.2700 hc         1 7L6       0.026950
     48 H21          5.1350    -2.4550     4.8010 h1         1 7L6       0.010950
     49 H22          4.4810    -0.8510     5.1750 h1         1 7L6       0.010950
     50 H24          8.1560    -0.5500     5.2890 h1         1 7L6       0.001033
     51 H25          6.6920    -0.4040     6.2710 h1         1 7L6       0.001033
     52 H26          7.2550    -1.9990     5.7550 h1         1 7L6       0.001033
     53 H27          7.2590     0.9620     3.6960 h1         1 7L6       0.010950
     54 H28          5.7070     1.1220     4.5370 h1         1 7L6       0.010950
     55 H29         -2.3890    -0.8650     2.6610 h1         1 7L6       0.033200
     56 H30         -2.4020     0.9060     2.7350 h1         1 7L6       0.033200
     57 H1          -3.9280    -0.0040     4.4260 h1         1 7L6       0.012700
@<TRIPOS>BOND
     1     1     2 ar  
     2     1     7 ar  
     3     1    11 ar  
     4     2     3 ar  
     5     2    18 ar  
     6     3     5 ar  
     7     3    19 1   
     8     4    27 1   
     9     4    28 1   
    10     4    29 1   
    11     4    57 1   
    12     5    10 ar  
    13     6     8 1   
    14     6    28 1   
    15     6    30 1   
    16     6    31 1   
    17     7    10 ar  
    18     8     9 1   
    19     8    32 1   
    20     8    33 1   
    21     9    10 1   
    22     9    27 1   
    23    11    12 ar  
    24    11    34 1   
    25    12    13 1   
    26    12    15 ar  
    27    13    14 1   
    28    14    35 1   
    29    14    36 1   
    30    14    37 1   
    31    15    16 1   
    32    15    18 ar  
    33    16    17 1   
    34    17    38 1   
    35    17    39 1   
    36    17    40 1   
    37    18    41 1   
    38    19    20 1   
    39    19    42 1   
    40    20    21 1   
    41    20    22 1   
    42    20    43 1   
    43    21    26 1   
    44    21    44 1   
    45    21    45 1   
    46    22    23 1   
    47    22    46 1   
    48    22    47 1   
    49    23    24 1   
    50    23    48 1   
    51    23    49 1   
    52    24    25 1   
    53    24    26 1   
    54    25    50 1   
    55    25    51 1   
    56    25    52 1   
    57    26    53 1   
    58    26    54 1   
    59    27    55 1   
    60    27    56 1   
@<TRIPOS>SUBSTRUCTURE
     1 7L6         1 TEMP              0 ****  ****    0 ROOT
