@<TRIPOS>MOLECULE
7L7
   29    30     1     0     0
SMALL
bcc


@<TRIPOS>ATOM
      1 C1           0.0000     0.0000     0.0000 ce         1 7L7      -0.102900
      2 C2           1.4170     0.0000     0.0000 c          1 7L7       0.717300
      3 C3          -0.7160     0.0010    -1.2410 cg         1 7L7       0.219500
      4 N4          -1.3000     0.0080    -2.2150 n1         1 7L7      -0.396800
      5 O5           2.0260     0.0000     1.0530 o          1 7L7      -0.583000
      6 O6           2.0920     0.0000    -1.1690 os         1 7L7      -0.364900
      7 C7           3.5190    -0.0000    -1.0950 c3         1 7L7       0.238700
      8 C8          -0.6980    -0.0040     1.2100 c2         1 7L7       0.117200
      9 N9          -2.0510    -0.0100     1.3450 n          1 7L7       0.175800
     10 C10         -2.6030    -0.0210     2.5490 c          1 7L7       0.608500
     11 C11         -1.5830    -0.0240     3.6660 c3         1 7L7      -0.074300
     12 S12          0.0090    -0.0130     2.7780 ss         1 7L7      -0.155700
     13 C13         -2.8660    -0.0060     0.2040 ca         1 7L7      -0.212400
     14 C14         -3.2710    -1.2050    -0.3670 ca         1 7L7      -0.059000
     15 C15         -4.0740    -1.1960    -1.4910 ca         1 7L7      -0.109000
     16 C16         -4.4750     0.0040    -2.0480 ca         1 7L7      -0.032000
     17 C17         -4.0750     1.2010    -1.4830 ca         1 7L7      -0.084000
     18 C18         -3.2750     1.2000    -0.3540 ca         1 7L7       0.142900
     19 F19         -2.8890     2.3690     0.2020 f          1 7L7      -0.121900
     20 O20         -3.8010    -0.0260     2.7360 o          1 7L7      -0.598500
     21 H1           4.4040     0.1750    -0.4950 h1         1 7L7       0.004700
     22 H2           3.6760     0.4890    -2.0480 h1         1 7L7       0.004700
     23 H3           3.6510    -0.9470    -1.6040 h1         1 7L7       0.004700
     24 H4          -1.5060     0.9410     4.1530 h1         1 7L7       0.087700
     25 H5          -1.8510    -0.5680     4.5630 h1         1 7L7       0.087700
     26 H6          -3.1150    -1.9290     0.4240 ha         1 7L7       0.116000
     27 H7          -4.5490    -2.1640    -1.5990 ha         1 7L7       0.114000
     28 H8          -5.0360    -0.4130    -2.8750 ha         1 7L7       0.129000
     29 H9          -4.2810     2.1160    -2.0240 ha         1 7L7       0.126000
@<TRIPOS>BOND
     1     1     2 1   
     2     1     3 1   
     3     1     8 2   
     4     2     5 2   
     5     2     6 1   
     6     3     4 3   
     7     6     7 1   
     8     7    21 1   
     9     7    22 1   
    10     7    23 1   
    11     8     9 1   
    12     8    12 1   
    13     9    10 1   
    14     9    13 1   
    15    10    11 1   
    16    10    20 2   
    17    11    12 1   
    18    11    24 1   
    19    11    25 1   
    20    13    14 ar  
    21    13    18 ar  
    22    14    15 ar  
    23    14    26 1   
    24    15    16 ar  
    25    15    27 1   
    26    16    17 ar  
    27    16    28 1   
    28    17    18 ar  
    29    17    29 1   
    30    18    19 1   
@<TRIPOS>SUBSTRUCTURE
     1 7L7         1 TEMP              0 ****  ****    0 ROOT
