@<TRIPOS>MOLECULE
molecule
   29    30     1     0     0
SMALL
bcc


@<TRIPOS>ATOM
      1 C1           0.0000     0.0000     0.0000 ce         1 7L7      -0.152900
      2 C2           1.4170     0.0000     0.0000 c          1 7L7       0.675300
      3 C3          -0.7160     0.0010    -1.2410 cg         1 7L7       0.226500
      4 N4          -1.2690    -0.0090    -2.2330 n1         1 7L7      -0.374800
      5 O5           2.0260     0.0000     1.0530 o          1 7L7      -0.568000
      6 O6           2.0920     0.0000    -1.1690 os         1 7L7      -0.408900
      7 C7           3.5190    -0.0000    -1.0950 c3         1 7L7       0.134700
      8 C8          -0.6980    -0.0040     1.2100 c2         1 7L7       0.236200
      9 N9          -2.0510    -0.0100     1.3450 n          1 7L7      -0.272200
     10 C10         -2.6030    -0.0210     2.5490 c          1 7L7       0.704500
     11 C11         -1.5830    -0.0240     3.6660 c3         1 7L7      -0.156300
     12 S12          0.0090    -0.0130     2.7780 ss         1 7L7      -0.031700
     13 C13         -2.8660    -0.0060     0.2040 ca         1 7L7      -0.044400
     14 C14         -3.2710    -1.2050    -0.3670 ca         1 7L7      -0.077000
     15 C15         -4.0740    -1.1960    -1.4910 ca         1 7L7      -0.128000
     16 C16         -4.4750     0.0040    -2.0480 ca         1 7L7      -0.068000
     17 C17         -4.0750     1.2010    -1.4830 ca         1 7L7      -0.153000
     18 C18         -3.2750     1.2000    -0.3540 ca         1 7L7       0.159900
     19 F19         -2.8890     2.3690     0.2020 f          1 7L7      -0.129900
     20 O20         -3.8010    -0.0260     2.7360 o          1 7L7      -0.552500
     21 H1           3.9280    -0.3970    -2.0160 h1         1 7L7       0.050367
     22 H2           3.8370    -0.6170    -0.2630 h1         1 7L7       0.050367
     23 H3           3.8730     1.0130    -0.9490 h1         1 7L7       0.050367
     24 H4          -1.8080    -0.8110     4.3750 h1         1 7L7       0.121200
     25 H5          -1.5640     0.9410     4.1580 h1         1 7L7       0.121200
     26 H6          -2.9490    -2.1450     0.0630 ha         1 7L7       0.146000
     27 H7          -4.3910    -2.1310    -1.9370 ha         1 7L7       0.144000
     28 H8          -5.1050     0.0090    -2.9290 ha         1 7L7       0.143000
     29 H9          -4.3900     2.1400    -1.9220 ha         1 7L7       0.154000
@<TRIPOS>BOND
     1    15    14 ar
     2    15    16 ar
     3    14    13 ar
     4    16    17 ar
     5    20    10 2
     6    13     9 1
     7    13    18 ar
     8    10     9 1
     9    10    11 1
    10    17    18 ar
    11     9     8 1
    12    18    19 1
    13    11    12 1
    14     4     3 3
    15     8    12 1
    16     8     1 2
    17     3     1 1
    18     1     2 1
    19     2     5 2
    20     2     6 1
    21     6     7 1
    22     7    21 1
    23     7    22 1
    24     7    23 1
    25    11    24 1
    26    11    25 1
    27    14    26 1
    28    15    27 1
    29    16    28 1
    30    17    29 1
@<TRIPOS>SUBSTRUCTURE
     1 7L7         1 TEMP              0 ****  ****    0 ROOT
