@<TRIPOS>MOLECULE
molecule
   27    28     1     0     0
SMALL
bcc


@<TRIPOS>ATOM
      1 OAH          0.0000     0.0000     0.0000 o          1 7L9      -0.871300
      2 CAG          1.2140     0.0000     0.0000 c          1 7L9       0.900200
      3 OAI          1.8880     0.0000     1.1670 o          1 7L9      -0.871300
      4 CAE          1.9540    -0.0040    -1.2790 ca         1 7L9      -0.135600
      5 CAD          1.2580    -0.0030    -2.4870 ca         1 7L9       0.008000
      6 CAF          3.3510    -0.0030    -1.2810 ca         1 7L9      -0.109000
      7 CAA          4.0410    -0.0070    -2.4760 ca         1 7L9      -0.202000
      8 CAB          3.3570    -0.0120    -3.6770 ca         1 7L9      -0.136000
      9 CAC          1.9620    -0.0010    -3.6890 cp         1 7L9      -0.021000
     10 CAJ          1.2310    -0.0070    -4.9770 cp         1 7L9      -0.013000
     11 CAK          1.4280    -1.0290    -5.9100 ca         1 7L9      -0.243300
     12 CAL          0.7170    -0.9980    -7.1050 ca         1 7L9       0.365800
     13 CAS          0.9160    -2.0770    -8.1010 c          1 7L9       0.795100
     14 OAU          0.2330    -2.0580    -9.2610 o          1 7L9      -0.862800
     15 OAT          1.6970    -2.9780    -7.8720 o          1 7L9      -0.862800
     16 NAM         -0.1400    -0.0170    -7.3650 nb         1 7L9      -0.694000
     17 CAN         -0.3560     0.9640    -6.5200 ca         1 7L9       0.400200
     18 CAO          0.3140     1.0150    -5.2950 ca         1 7L9      -0.234900
     19 CAP          0.0610     2.1180    -4.3460 c          1 7L9       0.884200
     20 OAR         -0.9120     3.0140    -4.5990 o          1 7L9      -0.846800
     21 OAQ          0.7310     2.2170    -3.3370 o          1 7L9      -0.846800
     22 H2           0.1800    -0.1080    -2.4920 ha         1 7L9       0.152000
     23 H3           3.8930     0.0000    -0.3430 ha         1 7L9       0.119000
     24 H4           5.1250    -0.0070    -2.4730 ha         1 7L9       0.072000
     25 H5           3.9060    -0.0200    -4.6110 ha         1 7L9       0.099000
     26 H6           1.9800    -1.9180    -5.6310 ha         1 7L9       0.137000
     27 H8          -1.0640     1.7440    -6.7750 h4         1 7L9       0.019100
@<TRIPOS>BOND
     1    15    13 1   
     2    14    13 1   
     3    13    12 1   
     4    12    16 ar  
     5    12    11 ar  
     6    16    17 ar  
     7    11    10 ar  
     8    17    18 ar  
     9    10    18 ar  
    10    10     9 1   
    11    18    19 1   
    12     9     8 ar  
    13     9     5 ar  
    14     8     7 ar  
    15     5     4 ar  
    16    19    21 1   
    17    19    20 1   
    18     7     6 ar  
    19     4     6 ar  
    20     4     2 1   
    21     1     2 1   
    22     2     3 1   
    23     5    22 1   
    24     6    23 1   
    25     7    24 1   
    26     8    25 1   
    27    11    26 1   
    28    17    27 1   
@<TRIPOS>SUBSTRUCTURE
     1 7L9         1 TEMP              0 ****  ****    0 ROOT
