@<TRIPOS>MOLECULE
molecule
   40    41     1     0     0
SMALL
bcc


@<TRIPOS>ATOM
      1 C4           0.0000     0.0000     0.0000 c3         1 7LB       0.145100
      2 C5           3.3990     0.6110     1.3790 c3         1 7LB      -0.039200
      3 C6           3.3170     2.0630     0.9830 c2         1 7LB      -0.131200
      4 C11          3.5650     7.0230     0.5930 ca         1 7LB       0.390200
      5 C7           3.8250     2.9960     1.7770 ce         1 7LB      -0.143200
      6 C8           3.7450     4.4190     1.3890 ca         1 7LB      -0.134100
      7 C9           4.2870     5.4120     2.2130 ca         1 7LB      -0.175000
      8 C10          4.1910     6.7340     1.8000 ca         1 7LB       0.014800
      9 C13          3.1380     4.7940     0.1900 ca         1 7LB       0.382200
     10 N3           1.4700     0.0000     0.0000 n7         1 7LB      -0.818200
     11 C1           2.0620    -1.4370     1.8930 c3         1 7LB      -0.129100
     12 C15          5.3830     7.3900     3.6900 ca         1 7LB       0.096100
     13 C16          6.7700     7.4040     3.6950 ca         1 7LB      -0.137500
     14 C17          7.4600     7.0540     4.8400 ca         1 7LB      -0.119500
     15 C18          6.7680     6.6910     5.9810 ca         1 7LB      -0.129000
     16 C19          5.3860     6.6770     5.9790 ca         1 7LB      -0.119500
     17 C2           1.9960     0.0000     1.3720 c3         1 7LB       0.161500
     18 C20          4.6920     7.0300     4.8380 ca         1 7LB      -0.137500
     19 N12          3.0650     6.0620    -0.1590 nb         1 7LB      -0.655000
     20 O14          4.7020     7.7330     2.5660 os         1 7LB      -0.244200
     21 H41         -0.3610    -1.0060     0.1780 h1         1 7LB       0.031700
     22 H42         -0.3610     0.6570     0.7820 h1         1 7LB       0.031700
     23 H43         -0.3610     0.3490    -0.9600 h1         1 7LB       0.031700
     24 H51          4.0280     0.0800     0.6750 hc         1 7LB       0.050700
     25 H52          3.8220     0.5310     2.3730 hc         1 7LB       0.050700
     26 H6           2.8430     2.3440     0.0510 ha         1 7LB       0.145000
     27 H9L          3.4850     8.0530     0.2670 h4         1 7LB       0.034100
     28 H7           4.2990     2.7140     2.7100 ha         1 7LB       0.129000
     29 H9           4.7690     5.1550     3.1480 ha         1 7LB       0.153000
     30 H9M          2.7140     4.0360    -0.4560 h4         1 7LB       0.032100
     31 H32          1.8030    -0.8090    -0.4850 hn         1 7LB       0.354800
     32 H11          2.4870    -1.4400     2.8890 hc         1 7LB       0.039033
     33 H12          1.0630    -1.8560     1.9250 hc         1 7LB       0.039033
     34 H13          2.6820    -2.0320     1.2330 hc         1 7LB       0.039033
     35 H16          7.3120     7.6860     2.8000 ha         1 7LB       0.145500
     36 H17          8.5430     7.0650     4.8440 ha         1 7LB       0.135500
     37 H18          7.3110     6.4160     6.8770 ha         1 7LB       0.133000
     38 H19          4.8460     6.3940     6.8750 ha         1 7LB       0.135500
     39 H2           1.3430     0.5850     2.0090 h1         1 7LB       0.063700
     40 H20          3.6090     7.0180     4.8380 ha         1 7LB       0.145500
@<TRIPOS>BOND
     1    14    15 ar  
     2    14    13 ar  
     3    15    16 ar  
     4    13    12 ar  
     5    16    18 ar  
     6    18    12 ar  
     7    12    20 1   
     8    20     8 1   
     9     8     7 ar  
    10     8     4 ar  
    11     7     6 ar  
    12     5     6 1   
    13     5     3 2   
    14     1    10 1   
    15    17    10 1   
    16    17    11 1   
    17    17     2 1   
    18     6     9 ar  
    19     4    19 ar  
    20     2     3 1   
    21     9    19 ar  
    22     1    21 1   
    23     1    22 1   
    24     1    23 1   
    25     2    24 1   
    26     2    25 1   
    27     3    26 1   
    28     4    27 1   
    29     5    28 1   
    30     7    29 1   
    31     9    30 1   
    32    10    31 1   
    33    11    32 1   
    34    11    33 1   
    35    11    34 1   
    36    13    35 1   
    37    14    36 1   
    38    15    37 1   
    39    16    38 1   
    40    17    39 1   
    41    18    40 1   
@<TRIPOS>SUBSTRUCTURE
     1 7LB         1 TEMP              0 ****  ****    0 ROOT
