@<TRIPOS>MOLECULE
7LB
   40    43     1     0     0
SMALL
bcc


@<TRIPOS>ATOM
      1 C4           0.0000     0.0000     0.0000 c3         1 7LB      -0.099000
      2 C5           3.3990     0.6110     1.3790 DU         1 7LB       0.019000
      3 C6           3.3170     2.0630     0.9830 c2         1 7LB      -0.067000
      4 C11          3.5650     7.0230     0.5930 c2         1 7LB      -0.159000
      5 C7           3.8250     2.9960     1.7770 c2         1 7LB      -0.072000
      6 C8           3.7450     4.4190     1.3890 c3         1 7LB       0.043000
      7 C9           4.2870     5.4120     2.2130 c2         1 7LB      -0.264000
      8 C10          4.1910     6.7340     1.8000 c2         1 7LB       0.092000
      9 C13          3.1380     4.7940     0.1900 c2         1 7LB      -0.181000
     10 N3           1.4700     0.0000     0.0000 n7         1 7LB      -0.058000
     11 C1           2.0620    -1.4370     1.8930 c3         1 7LB      -0.152000
     12 C15          5.3830     7.3900     3.6900 ca         1 7LB       0.057000
     13 C16          6.7700     7.4040     3.6950 ca         1 7LB      -0.118000
     14 C17          7.4600     7.0540     4.8400 ca         1 7LB      -0.087500
     15 C18          6.7680     6.6910     5.9810 ca         1 7LB      -0.106000
     16 C19          5.3860     6.6770     5.9790 ca         1 7LB      -0.087500
     17 C2           1.9960     0.0000     1.3720 c3         1 7LB      -0.116000
     18 C20          4.6920     7.0300     4.8380 ca         1 7LB      -0.118000
     19 N12          3.0650     6.0620    -0.1590 n2         1 7LB       0.021000
     20 O14          4.7020     7.7330     2.5660 os         1 7LB      -0.123000
     21 H41         -0.3610     0.7130     0.7320 h1         1 7LB       0.039667
     22 H42         -0.3610     0.2770    -0.9830 h1         1 7LB       0.039667
     23 H43         -0.3610    -0.9900     0.2510 h1         1 7LB       0.039667
     24 H51          4.0280     0.0800     0.6750 ha         1 7LB       0.062500
     25 H52          3.8220     0.5310     2.3730 ha         1 7LB       0.062500
     26 H6           4.2060     1.4510     0.8880 DU         1 7LB       0.030000
     27 H9L          3.4850     8.0530     0.2670 h4         1 7LB       0.130000
     28 H7           4.4740     3.4690     1.0500 DU         1 7LB       0.058000
     29 H9           4.7690     5.1550     3.1480 ha         1 7LB       0.143000
     30 H9M          2.7140     4.0360    -0.4560 h4         1 7LB       0.138000
     31 H32          1.8030    -0.8090    -0.4850 hn         1 7LB       0.048000
     32 H11          1.0650    -1.8600     1.9130 hc         1 7LB       0.047667
     33 H12          2.4750    -1.4390     2.8940 hc         1 7LB       0.047667
     34 H13          2.6930    -2.0290     1.2410 hc         1 7LB       0.047667
     35 H16          7.3120     7.6860     2.8000 ha         1 7LB       0.117500
     36 H17          8.5430     7.0650     4.8440 ha         1 7LB       0.106000
     37 H18          7.3110     6.4160     6.8770 ha         1 7LB       0.105000
     38 H19          4.8460     6.3940     6.8750 ha         1 7LB       0.106000
     39 H2           1.3430     0.5850     2.0090 h1         1 7LB       0.089000
     40 H20          3.6090     7.0180     4.8380 ha         1 7LB       0.117500
@<TRIPOS>BOND
     1     1    10 1   
     2     1    21 1   
     3     1    22 1   
     4     1    23 1   
     5     2     3 1   
     6     2    17 1   
     7     2    24 1   
     8     2    25 1   
     9     2    26 1   
    10     3     5 1   
    11     3    26 1   
    12     4     8 1   
    13     4    19 1   
    14     4    27 1   
    15     5     6 1   
    16     5    28 1   
    17     6     7 1   
    18     6     9 1   
    19     6    28 1   
    20     7     8 1   
    21     7    29 1   
    22     8    20 1   
    23     9    19 1   
    24     9    30 1   
    25    10    17 1   
    26    10    31 1   
    27    11    17 1   
    28    11    32 1   
    29    11    33 1   
    30    11    34 1   
    31    12    13 1   
    32    12    18 1   
    33    12    20 1   
    34    13    14 1   
    35    13    35 1   
    36    14    15 1   
    37    14    36 1   
    38    15    16 1   
    39    15    37 1   
    40    16    18 1   
    41    16    38 1   
    42    17    39 1   
    43    18    40 1   
@<TRIPOS>SUBSTRUCTURE
     1 7LB         1 TEMP              0 ****  ****    0 ROOT
