@<TRIPOS>MOLECULE
molecule
   49    52     1     0     0
SMALL
bcc


@<TRIPOS>ATOM
      1 N1           0.0000     0.0000     0.0000 na         1 7LD      -0.184400
      2 N3           3.2310     1.0850     8.3720 n          1 7LD      -0.492800
      3 C4          -1.7180     0.0060     1.9100 ca         1 7LD      -0.139000
      4 C5          -1.7300    -0.0020     3.3000 ca         1 7LD      -0.107000
      5 C6           0.6560    -0.0300     3.5030 ca         1 7LD      -0.001800
      6 C7           1.8470     0.0000     1.2460 cc         1 7LD      -0.150400
      7 C8           1.3860     0.0000     0.0000 cd         1 7LD      -0.095100
      8 C10          2.1590     0.3680     5.3470 c2         1 7LD      -0.151200
      9 C13          4.3550    -0.7490     5.3840 c3         1 7LD       0.184800
     10 C15          3.2150     0.0120     1.8790 c3         1 7LD       0.015800
     11 C17          3.1850     2.4670     7.8880 c3         1 7LD       0.101000
     12 C20          1.7120     0.6420    10.2370 c3         1 7LD      -0.117100
     13 N2           4.4260    -0.4980     3.9410 n3         1 7LD      -0.746600
     14 C12          5.4210    -1.3720     3.3040 c3         1 7LD       0.158100
     15 C11          3.1320    -0.6110     3.2800 c3         1 7LD       0.229700
     16 C3           0.6590    -0.0110     2.0920 ca         1 7LD      -0.126800
     17 C1          -0.4750    -0.0010     1.2770 ca         1 7LD      -0.025200
     18 C2          -0.5870    -0.0200     4.0950 ca         1 7LD      -0.141000
     19 C9           2.0000    -0.0690     4.1100 ce         1 7LD      -0.037400
     20 C14          3.5030     0.3520     6.0250 c3         1 7LD      -0.108500
     21 C16          3.3270     0.0670     7.4950 c          1 7LD       0.668100
     22 O1           3.2700    -1.0790     7.8870 o          1 7LD      -0.607100
     23 C19          3.1720     0.8100     9.8090 c3         1 7LD       0.101000
     24 C18          4.5990     3.0540     7.8890 c3         1 7LD      -0.117100
     25 H1          -0.5710     0.0010    -0.8220 hn         1 7LD       0.294700
     26 H2          -2.6390     0.0200     1.3400 ha         1 7LD       0.131000
     27 H3          -2.6920     0.0050     3.7970 ha         1 7LD       0.125000
     28 H4           2.0040     0.0000    -0.8890 h4         1 7LD       0.163000
     29 H5           1.3000     0.7490     5.8870 ha         1 7LD       0.132000
     30 H6           5.3520    -0.7290     5.8060 h1         1 7LD       0.052700
     31 H7           3.8960    -1.7140     5.5630 h1         1 7LD       0.052700
     32 H8           3.8990    -0.5640     1.2680 hc         1 7LD       0.055700
     33 H9           3.5650     1.0340     1.9590 hc         1 7LD       0.055700
     34 H10          2.7880     2.4840     6.8800 h1         1 7LD       0.055450
     35 H11          2.5490     3.0560     8.5360 h1         1 7LD       0.055450
     36 H12          1.3270    -0.2940     9.8500 hc         1 7LD       0.042033
     37 H13          1.1240     1.4630     9.8450 hc         1 7LD       0.042033
     38 H14          1.6500     0.6370    11.3180 hc         1 7LD       0.042033
     39 H16          6.2960    -1.4460     3.9390 h1         1 7LD       0.033700
     40 H17          5.7050    -0.9560     2.3450 h1         1 7LD       0.033700
     41 H18          4.9960    -2.3580     3.1580 h1         1 7LD       0.033700
     42 H19          2.9400    -1.6680     3.1420 h1         1 7LD       0.035700
     43 H20         -0.6750    -0.0260     5.1740 ha         1 7LD       0.132000
     44 H21          3.9890     1.3110     5.8900 hc         1 7LD       0.082700
     45 H22          3.7180    -0.1000    10.0250 h1         1 7LD       0.055450
     46 H23          3.6150     1.6350    10.3540 h1         1 7LD       0.055450
     47 H24          4.7070     3.7310     8.7280 hc         1 7LD       0.042033
     48 H25          5.3230     2.2530     7.9750 hc         1 7LD       0.042033
     49 H26          4.7660     3.5950     6.9650 hc         1 7LD       0.042033
@<TRIPOS>BOND
     1    14    13 1
     2     7     6 2
     3     7     1 1
     4    10     6 1
     5    10    15 1
     6     6    16 1
     7     1    17 1
     8    13    15 1
     9    13     9 1
    10    15    19 1
    11    16    17 ar
    12    16     5 ar
    13     9    20 1
    14    17     3 ar
    15    19     5 1
    16    19     8 2
    17     5    18 ar
    18     3     4 ar
    19    20     8 1
    20    20    21 1
    21    11     2 1
    22    11    24 1
    23    18     4 ar
    24    21     2 1
    25    21    22 2
    26     2    23 1
    27    12    23 1
    28     1    25 1
    29     3    26 1
    30     4    27 1
    31     7    28 1
    32     8    29 1
    33     9    30 1
    34     9    31 1
    35    10    32 1
    36    10    33 1
    37    11    34 1
    38    11    35 1
    39    12    36 1
    40    12    37 1
    41    12    38 1
    42    14    39 1
    43    14    40 1
    44    14    41 1
    45    15    42 1
    46    18    43 1
    47    20    44 1
    48    23    45 1
    49    23    46 1
    50    24    47 1
    51    24    48 1
    52    24    49 1
@<TRIPOS>SUBSTRUCTURE
     1 7LD         1 TEMP              0 ****  ****    0 ROOT
