@<TRIPOS>MOLECULE
molecule
   44    47     1     0     0
SMALL
bcc


@<TRIPOS>ATOM
      1 N            0.0000     0.0000     0.0000 na         1 7LF       0.049900
      2 C           -1.4720    -1.2900    -1.4340 c          1 7LF       0.563700
      3 O           -1.4130    -2.1360    -0.5670 o          1 7LF      -0.512100
      4 C6           3.4920    -0.0070    -3.6550 ca         1 7LF       0.197900
      5 C5           2.5110    -0.9610    -3.4320 ca         1 7LF      -0.164000
      6 C4           1.8030    -0.9620    -2.2490 ca         1 7LF      -0.060500
      7 C7           3.7700     0.9460    -2.6880 ca         1 7LF      -0.164000
      8 C8           3.0710     0.9510    -1.4990 ca         1 7LF      -0.060500
      9 C3           2.0750    -0.0010    -1.2750 ca         1 7LF      -0.159000
     10 C2           1.3220     0.0000     0.0000 cc         1 7LF       0.199700
     11 C9           2.0260     0.0000     1.2800 cc         1 7LF      -0.158300
     12 N1           1.2810     0.0020     2.4440 na         1 7LF       0.050700
     13 C12          2.1340     0.0020     3.4970 cc         1 7LF      -0.094100
     14 C11          3.4090     0.0020     3.0320 cd         1 7LF      -0.154000
     15 C10          3.3580     0.0010     1.6350 cd         1 7LF      -0.091000
     16 C13         -0.0910     0.0010     2.3460 cd         1 7LF      -0.042300
     17 C14         -0.6920     0.0010     1.1420 cc         1 7LF      -0.134300
     18 C1          -0.7200     0.0060    -1.2760 c3         1 7LF      -0.114700
     19 C15         -2.2780    -1.5310    -2.6420 ca         1 7LF      -0.213600
     20 C21         -2.3450    -0.5610    -3.6470 ca         1 7LF      -0.068000
     21 C20         -3.0980    -0.7960    -4.7780 ca         1 7LF      -0.135500
     22 C18         -3.7870    -1.9880    -4.9200 ca         1 7LF      -0.021300
     23 C19         -4.6080    -2.2360    -6.1590 c3         1 7LF      -0.060800
     24 C17         -3.7270    -2.9530    -3.9290 ca         1 7LF      -0.135500
     25 C16         -2.9770    -2.7320    -2.7920 ca         1 7LF      -0.068000
     26 H1           2.3010    -1.7080    -4.1880 ha         1 7LF       0.175000
     27 H2           1.0350    -1.7060    -2.0770 ha         1 7LF       0.155000
     28 H3           4.5430     1.6840    -2.8640 ha         1 7LF       0.175000
     29 H4           3.2880     1.6980    -0.7450 ha         1 7LF       0.155000
     30 H5           1.8450     0.0030     4.5410 h4         1 7LF       0.203000
     31 H6           4.3080    -0.0330     3.6360 ha         1 7LF       0.191000
     32 H7           4.2050     0.0010     0.9600 ha         1 7LF       0.182000
     33 H8          -0.6930     0.0020     3.2470 h4         1 7LF       0.206000
     34 H9          -1.7740     0.0010     1.0980 h4         1 7LF       0.209000
     35 H10         -0.0130     0.1150    -2.0900 h1         1 7LF       0.120200
     36 H11         -1.4200     0.8330    -1.2930 h1         1 7LF       0.120200
     37 H12         -1.8060     0.3720    -3.5370 ha         1 7LF       0.140000
     38 H13         -3.1510    -0.0460    -5.5580 ha         1 7LF       0.151500
     39 H14         -4.4040    -3.2310    -6.5340 hc         1 7LF       0.059367
     40 H15         -5.6610    -2.1500    -5.9170 hc         1 7LF       0.059367
     41 H16         -4.3510    -1.5050    -6.9150 hc         1 7LF       0.059367
     42 H17         -4.2690    -3.8830    -4.0460 ha         1 7LF       0.151500
     43 H18         -2.9300    -3.4880    -2.0180 ha         1 7LF       0.140000
     44 F            4.1820    -0.0100    -4.8170 f          1 7LF      -0.104900
@<TRIPOS>BOND
     1    23    22 1
     2    21    22 ar
     3    21    20 ar
     4    22    24 ar
     5    20    19 ar
     6    24    25 ar
     7    19    25 ar
     8    19     2 1
     9     3     2 2
    10     2    18 1
    11    18     1 1
    12    17     1 1
    13    17    16 2
    14     1    10 2
    15    16    12 1
    16    10     9 1
    17    10    11 1
    18     8     9 ar
    19     8     7 ar
    20    12    11 1
    21    12    13 1
    22     9     6 ar
    23     7     4 ar
    24    11    15 2
    25    13    14 2
    26     6     5 ar
    27     4     5 ar
    28     4    44 1
    29    15    14 1
    30     5    26 1
    31     6    27 1
    32     7    28 1
    33     8    29 1
    34    13    30 1
    35    14    31 1
    36    15    32 1
    37    16    33 1
    38    17    34 1
    39    18    35 1
    40    18    36 1
    41    20    37 1
    42    21    38 1
    43    23    39 1
    44    23    40 1
    45    23    41 1
    46    24    42 1
    47    25    43 1
@<TRIPOS>SUBSTRUCTURE
     1 7LF         1 TEMP              0 ****  ****    0 ROOT
