@<TRIPOS>MOLECULE
molecule
   44    45     1     0     0
SMALL
bcc


@<TRIPOS>ATOM
      1 CAX          0.0000     0.0000     0.0000 ca         1 7LH      -0.142000
      2 CAV          1.3860     0.0000     0.0000 ca         1 7LH       0.088100
      3 OAW          2.0660     0.0010    -1.1770 oh         1 7LH      -0.514100
      4 CAT          2.0780     0.0000     1.2070 ca         1 7LH       0.078100
      5 OAU          3.4380     0.0000     1.2120 oh         1 7LH      -0.517100
      6 CAS          1.3800    -0.0010     2.4030 ca         1 7LH      -0.158000
      7 CAR         -0.0030    -0.0020     2.3960 ca         1 7LH      -0.118000
      8 CAQ         -0.6910    -0.0010     1.1980 ca         1 7LH      -0.074300
      9 CAP         -2.1980    -0.0010     1.1950 c3         1 7LH      -0.028100
     10 CAO         -2.7080    -1.4440     1.1940 c3         1 7LH      -0.122400
     11 CAM         -4.2150    -1.4440     1.1920 c          1 7LH       0.631100
     12 OAN         -4.8190    -0.3990     1.1910 o          1 7LH      -0.569000
     13 OAL         -4.8860    -2.6070     1.1910 os         1 7LH      -0.371900
     14 CAK         -6.3360    -2.5320     1.1880 c3         1 7LH       0.147100
     15 CAY         -6.9110    -3.7530     1.9080 c3         1 7LH      -0.068400
     16 CAD         -6.4660    -5.0270     1.1870 c3         1 7LH       0.051800
     17 CAB         -7.0330    -6.2300     1.8960 c          1 7LH       0.869600
     18 OAC         -8.0390    -6.1230     2.5570 o          1 7LH      -0.834300
     19 OAA         -6.4190    -7.4190     1.7940 o          1 7LH      -0.834300
     20 OAE         -5.0390    -5.1010     1.1890 oh         1 7LH      -0.621800
     21 CAF         -6.9730    -4.9990    -0.2560 c3         1 7LH      -0.086400
     22 CAG         -6.3980    -3.7780    -0.9760 c3         1 7LH       0.131100
     23 OAH         -6.8720    -3.7530    -2.3240 oh         1 7LH      -0.626800
     24 CAI         -6.8430    -2.5050    -0.2550 c3         1 7LH       0.131100
     25 OAJ         -6.3060    -1.3630    -0.9270 oh         1 7LH      -0.603800
     26 H1          -0.5420     0.0000    -0.9380 ha         1 7LH       0.148000
     27 H2           2.0990     0.8790    -1.5210 ho         1 7LH       0.418000
     28 H3           3.7510    -0.8370     1.5130 ho         1 7LH       0.419000
     29 H4           1.9170    -0.0010     3.3440 ha         1 7LH       0.136000
     30 H5          -0.5480    -0.0020     3.3330 ha         1 7LH       0.138000
     31 H6          -2.5580     0.5100     0.3110 hc         1 7LH       0.064700
     32 H7          -2.5610     0.5090     2.0800 hc         1 7LH       0.064700
     33 H8          -2.3480    -1.9550     2.0790 hc         1 7LH       0.074200
     34 H9          -2.3460    -1.9550     0.3100 hc         1 7LH       0.074200
     35 H10         -6.6560    -1.6310     1.6980 h1         1 7LH       0.056700
     36 H11         -7.9930    -3.6960     1.9030 hc         1 7LH       0.066700
     37 H12         -6.5500    -3.7720     2.9290 hc         1 7LH       0.066700
     38 H14         -4.7650    -5.8870     1.6320 ho         1 7LH       0.422000
     39 H15         -6.6540    -5.9000    -0.7660 hc         1 7LH       0.057700
     40 H16         -8.0540    -4.9410    -0.2560 hc         1 7LH       0.057700
     41 H17         -5.3160    -3.8340    -0.9700 h1         1 7LH       0.065700
     42 H18         -6.2140    -4.1130    -2.8950 ho         1 7LH       0.395000
     43 H19         -7.9250    -2.4520    -0.2540 h1         1 7LH       0.045700
     44 H20         -7.0080    -0.8720    -1.3220 ho         1 7LH       0.395000
@<TRIPOS>BOND
     1    23    22 1   
     2    25    24 1   
     3    24    22 1   
     4    24    14 1   
     5    22    21 1   
     6    21    16 1   
     7    14    13 1   
     8    14    15 1   
     9    13    11 1   
    10    15    16 1   
    11    16    20 1   
    12    16    17 1   
    13    11    10 1   
    14    11    12 2   
    15    18    17 1   
    16    10     9 1   
    17    17    19 1   
    18     3     2 1   
    19     1     2 ar  
    20     1     8 ar  
    21     9     8 1   
    22     2     4 ar  
    23     8     7 ar  
    24     4     5 1   
    25     4     6 ar  
    26     7     6 ar  
    27     1    26 1   
    28     3    27 1   
    29     5    28 1   
    30     6    29 1   
    31     7    30 1   
    32     9    31 1   
    33     9    32 1   
    34    10    33 1   
    35    10    34 1   
    36    14    35 1   
    37    15    36 1   
    38    15    37 1   
    39    20    38 1   
    40    21    39 1   
    41    21    40 1   
    42    22    41 1   
    43    23    42 1   
    44    24    43 1   
    45    25    44 1   
@<TRIPOS>SUBSTRUCTURE
     1 7LH         1 TEMP              0 ****  ****    0 ROOT
