@<TRIPOS>MOLECULE
molecule
   49    51     1     0     0
SMALL
bcc


@<TRIPOS>ATOM
      1 C            0.0000     0.0000     0.0000 c3         1 7LI      -0.105600
      2 N            3.0990     3.3010    -2.0680 nh         1 7LI      -0.590000
      3 O            2.0070     1.1670    -0.6740 os         1 7LI      -0.358900
      4 S            1.9120     2.3920    -7.2100 ss         1 7LI      -0.194200
      5 C1           1.5300     0.0000     0.0000 c3         1 7LI       0.131100
      6 N1           5.8030     3.8950     0.4440 nz         1 7LI      -0.809600
      7 O1           4.5540     5.0310    -6.8700 o          1 7LI      -0.585500
      8 C2           2.0410     0.0000     1.4430 c3         1 7LI      -0.105600
      9 N2           3.2560     4.1230    -8.4360 ns         1 7LI      -0.575500
     10 O2           1.8160     3.0140    -9.8160 o          1 7LI      -0.519500
     11 C3           2.0980     1.1040    -2.0290 ca         1 7LI       0.111100
     12 C4           1.6430    -0.0170    -2.7010 ca         1 7LI      -0.196000
     13 C5           1.7310    -0.0910    -4.0830 ca         1 7LI      -0.067000
     14 C6           2.2730     0.9500    -4.8040 ca         1 7LI      -0.141000
     15 C7           2.7390     2.0930    -4.1400 ca         1 7LI      -0.019800
     16 C8           2.6440     2.1690    -2.7400 ca         1 7LI       0.037600
     17 C9           1.9950     3.9880    -1.3870 c3         1 7LI       0.153800
     18 C10          2.5020     5.3000    -0.7840 c3         1 7LI      -0.071400
     19 C11          3.6280     4.9970     0.2090 c3         1 7LI      -0.103400
     20 C12          4.7440     4.2390    -0.5150 c3         1 7LI       0.094500
     21 C13          4.1710     2.9580    -1.1250 c3         1 7LI       0.144800
     22 C14          3.3180     3.2040    -4.9020 ce         1 7LI       0.022800
     23 C15          3.0690     3.3170    -6.2320 cd         1 7LI      -0.094600
     24 C16          3.6950     4.2320    -7.1920 c          1 7LI       0.707700
     25 C17          2.3090     3.2230    -8.7230 c          1 7LI       0.720100
     26 H           -0.3610     0.5900     0.8340 hc         1 7LI       0.051367
     27 HA          -0.3610     0.4270    -0.9280 hc         1 7LI       0.051367
     28 HB          -0.3610    -1.0170     0.0940 hc         1 7LI       0.051367
     29 H1           1.8910    -0.8850    -0.5110 h1         1 7LI       0.056700
     30 HN1          5.4090     3.3790     1.2060 hn         1 7LI       0.453467
     31 HN1A         6.4980     3.3370    -0.0120 hn         1 7LI       0.453467
     32 H2           1.7440     0.9200     1.9310 hc         1 7LI       0.051367
     33 H2A          3.1210    -0.0770     1.4430 hc         1 7LI       0.051367
     34 H2B          1.6190    -0.8440     1.9750 hc         1 7LI       0.051367
     35 HN2          3.6290     4.7100    -9.1550 hn         1 7LI       0.361500
     36 H4           1.2150    -0.8410    -2.1440 ha         1 7LI       0.154000
     37 H5           1.3710    -0.9730    -4.5990 ha         1 7LI       0.154000
     38 H6           2.3410     0.8840    -5.8830 ha         1 7LI       0.171000
     39 H9           1.2090     4.2020    -2.1020 h1         1 7LI       0.072700
     40 H9A          1.6090     3.3550    -0.5970 h1         1 7LI       0.072700
     41 H10          2.8800     5.9380    -1.5740 hc         1 7LI       0.077700
     42 H10A         1.6900     5.7980    -0.2670 hc         1 7LI       0.077700
     43 H11          3.2420     4.3870     1.0170 hc         1 7LI       0.061700
     44 H11A         4.0200     5.9260     0.6050 hc         1 7LI       0.061700
     45 H12          5.1510     4.8620    -1.3020 hx         1 7LI       0.128700
     46 H13          4.9560     2.4280    -1.6510 h1         1 7LI       0.064700
     47 H13A         3.7710     2.3320    -0.3370 h1         1 7LI       0.064700
     48 H14          4.0590     3.8430    -4.4370 ha         1 7LI       0.167000
     49 H131         6.1980     4.7340     0.8200 hn         1 7LI       0.453467
@<TRIPOS>BOND
     1     1     5 1   
     2     2    16 1   
     3     2    17 1   
     4     2    21 1   
     5     3     5 1   
     6     3    11 1   
     7     4    23 1   
     8     4    25 1   
     9     5     8 1   
    10     6    20 1   
    11     7    24 2   
    12     9    24 1   
    13     9    25 1   
    14    10    25 2   
    15    11    12 ar  
    16    11    16 ar  
    17    12    13 ar  
    18    13    14 ar  
    19    14    15 ar  
    20    15    16 ar  
    21    15    22 1   
    22    17    18 1   
    23    18    19 1   
    24    19    20 1   
    25    20    21 1   
    26    22    23 2   
    27    23    24 1   
    28     1    26 1   
    29     1    27 1   
    30     1    28 1   
    31     5    29 1   
    32     6    30 1   
    33     6    31 1   
    34     8    32 1   
    35     8    33 1   
    36     8    34 1   
    37     9    35 1   
    38    12    36 1   
    39    13    37 1   
    40    14    38 1   
    41    17    39 1   
    42    17    40 1   
    43    18    41 1   
    44    18    42 1   
    45    19    43 1   
    46    19    44 1   
    47    20    45 1   
    48    21    46 1   
    49    21    47 1   
    50    22    48 1   
    51    49     6 1   
@<TRIPOS>SUBSTRUCTURE
     1 7LI         1 TEMP              0 ****  ****    0 ROOT
