@<TRIPOS>MOLECULE
7LI
   49    51     1     0     0
SMALL
bcc


@<TRIPOS>ATOM
      1 C            0.0000     0.0000     0.0000 c3         1 7LI      -0.014600
      2 N            3.0990     3.3010    -2.0680 nh         1 7LI      -0.358000
      3 O            2.0070     1.1670    -0.6740 os         1 7LI      -0.333900
      4 S            1.9120     2.3920    -7.2100 ss         1 7LI      -0.274200
      5 C1           1.5300     0.0000     0.0000 c3         1 7LI       0.162100
      6 N1           5.8030     3.8950     0.4440 nz         1 7LI       0.080400
      7 O1           4.5540     5.0310    -6.8700 o          1 7LI      -0.621500
      8 C2           2.0410     0.0000     1.4430 c3         1 7LI      -0.014600
      9 N2           3.2560     4.1230    -8.4360 ns         1 7LI      -0.152500
     10 O2           1.8160     3.0140    -9.8160 o          1 7LI      -0.541500
     11 C3           2.0980     1.1040    -2.0290 ca         1 7LI       0.125100
     12 C4           1.6430    -0.0170    -2.7010 ca         1 7LI      -0.185000
     13 C5           1.7310    -0.0910    -4.0830 ca         1 7LI      -0.024000
     14 C6           2.2730     0.9500    -4.8040 ca         1 7LI      -0.137000
     15 C7           2.7390     2.0930    -4.1400 ca         1 7LI      -0.024800
     16 C8           2.6440     2.1690    -2.7400 ca         1 7LI      -0.053400
     17 C9           1.9950     3.9880    -1.3870 c3         1 7LI       0.124800
     18 C10          2.5020     5.3000    -0.7840 c3         1 7LI      -0.011400
     19 C11          3.6280     4.9970     0.2090 c3         1 7LI      -0.030400
     20 C12          4.7440     4.2390    -0.5150 c3         1 7LI      -0.087500
     21 C13          4.1710     2.9580    -1.1250 c3         1 7LI       0.127800
     22 C14          3.3180     3.2040    -4.9020 ce         1 7LI       0.084800
     23 C15          3.0690     3.3170    -6.2320 cd         1 7LI      -0.098600
     24 C16          3.6950     4.2320    -7.1920 c          1 7LI       0.622700
     25 C17          2.3090     3.2230    -8.7230 c          1 7LI       0.666100
     26 H           -0.3610     0.6910     0.7520 hc         1 7LI       0.016700
     27 HA          -0.3610     0.3060    -0.9740 hc         1 7LI       0.016700
     28 HB          -0.3610    -0.9970     0.2220 hc         1 7LI       0.016700
     29 H1           1.8910    -0.8850    -0.5110 h1         1 7LI       0.028700
     30 HN1          5.4090     3.3780     1.2060 hn         1 7LI       0.222800
     31 HN1A         6.2240     4.7330     0.7920 hn         1 7LI       0.222800
     32 H2           3.1220    -0.0650     1.4430 hc         1 7LI       0.016700
     33 H2A          1.7340     0.9150     1.9350 hc         1 7LI       0.016700
     34 H2B          1.6280    -0.8500     1.9720 hc         1 7LI       0.016700
     35 HN2          3.6290     4.7100    -9.1550 hn         1 7LI       0.205500
     36 H4           1.2150    -0.8410    -2.1440 ha         1 7LI       0.137000
     37 H5           1.3710    -0.9730    -4.5990 ha         1 7LI       0.119000
     38 H6           2.3410     0.8840    -5.8830 ha         1 7LI       0.165000
     39 H9           1.2090     4.2020    -2.1020 h1         1 7LI       0.044200
     40 H9A          1.6090     3.3550    -0.5970 h1         1 7LI       0.044200
     41 H10          1.6900     5.7980    -0.2670 hc         1 7LI       0.042700
     42 H10A         2.8800     5.9380    -1.5740 hc         1 7LI       0.042700
     43 H11          4.0200     5.9260     0.6050 hc         1 7LI       0.031700
     44 H11A         3.2420     4.3870     1.0170 hc         1 7LI       0.031700
     45 H12          5.1510     4.8620    -1.3020 hx         1 7LI       0.103700
     46 H13          3.7710     2.3320    -0.3370 h1         1 7LI       0.039200
     47 H13A         4.9560     2.4280    -1.6510 h1         1 7LI       0.039200
     48 H14          4.0590     3.8430    -4.4370 ha         1 7LI       0.126000
     49 H131         6.5170     3.3700    -0.0220 hn         1 7LI       0.222800
@<TRIPOS>BOND
     1     1     5 1   
     2     1    26 1   
     3     1    27 1   
     4     1    28 1   
     5     2    16 1   
     6     2    17 1   
     7     2    21 1   
     8     3     5 1   
     9     3    11 1   
    10     4    23 1   
    11     4    25 1   
    12     5     8 1   
    13     5    29 1   
    14     6    20 1   
    15     6    30 1   
    16     6    31 1   
    17     6    49 1   
    18     7    24 2   
    19     8    32 1   
    20     8    33 1   
    21     8    34 1   
    22     9    24 1   
    23     9    25 1   
    24     9    35 1   
    25    10    25 2   
    26    11    12 ar  
    27    11    16 ar  
    28    12    13 ar  
    29    12    36 1   
    30    13    14 ar  
    31    13    37 1   
    32    14    15 ar  
    33    14    38 1   
    34    15    16 ar  
    35    15    22 1   
    36    17    18 1   
    37    17    39 1   
    38    17    40 1   
    39    18    19 1   
    40    18    41 1   
    41    18    42 1   
    42    19    20 1   
    43    19    43 1   
    44    19    44 1   
    45    20    21 1   
    46    20    45 1   
    47    21    46 1   
    48    21    47 1   
    49    22    23 2   
    50    22    48 1   
    51    23    24 1   
@<TRIPOS>SUBSTRUCTURE
     1 7LI         1 TEMP              0 ****  ****    0 ROOT
