@<TRIPOS>MOLECULE
molecule
   43    46     1     0     0
SMALL
bcc


@<TRIPOS>ATOM
      1 CAA          0.0000     0.0000     0.0000 ca         1 7LK      -0.232300
      2 CAB          1.3830     0.0000     0.0000 ca         1 7LK       0.407200
      3 CAD         -0.6830     0.0050     1.2200 ca         1 7LK       0.060000
      4 CAF          0.9300     0.0200     4.4760 cc         1 7LK       0.089700
      5 CAG         -0.2360     0.0160     3.7790 cd         1 7LK      -0.210200
      6 CAH          0.0860     0.0100     2.4050 ca         1 7LK      -0.180100
      7 CAI          1.4930     0.0100     2.3080 ca         1 7LK       0.421800
      8 CAJ         -2.1140     0.0050     1.2670 cg         1 7LK       0.249800
      9 CAL          1.0450     0.0250     5.9490 ca         1 7LK      -0.114800
     10 CAM          2.2180    -0.4220     6.5610 ca         1 7LK      -0.047500
     11 CAN          2.3230    -0.4150     7.9350 ca         1 7LK      -0.259500
     12 CAO          1.2620     0.0370     8.7120 ca         1 7LK       0.211600
     13 CAP          0.0930     0.4830     8.1070 ca         1 7LK      -0.259500
     14 CAQ         -0.0170     0.4840     6.7340 ca         1 7LK      -0.047500
     15 CAS          3.1800    -0.6170    10.0350 c3         1 7LK       0.096800
     16 CAT          3.4250    -0.6090    11.7390 c3         1 7LK       0.219800
     17 CAV          1.6300     1.1700    12.0450 c3         1 7LK       0.219800
     18 CAW          1.7040     1.0660    10.5700 c3         1 7LK       0.096800
     19 NAC          2.0770     0.0000     1.1190 nb         1 7LK      -0.713000
     20 NAE          1.9860     0.0160     3.5940 na         1 7LK      -0.203100
     21 NAK         -3.2480    -0.0030     1.3220 n1         1 7LK      -0.367800
     22 NAR          2.0240    -0.0680     9.7020 nh         1 7LK      -0.576000
     23 NAU          3.1960     0.6670    12.2360 n7         1 7LK      -0.923200
     24 H1          -0.3130    -0.1860    -1.0200 ha         1 7LK       0.151000
     25 H2           2.0860     0.1850    -0.8030 h4         1 7LK       0.032100
     26 H3          -1.2530    -0.0400     4.1490 ha         1 7LK       0.164000
     27 H4           3.1490    -0.6090     6.0400 ha         1 7LK       0.133000
     28 H5           3.1310    -0.5940     8.6340 ha         1 7LK       0.163000
     29 H6          -0.8110     0.7340     8.6480 ha         1 7LK       0.163000
     30 H7          -0.9600     0.8350     6.3330 ha         1 7LK       0.133000
     31 H8           4.1320    -0.1400     9.8390 h1         1 7LK       0.036950
     32 H9           3.6930    -1.5620     9.8990 h1         1 7LK       0.036950
     33 H10          2.9370    -1.5130    12.0840 h1         1 7LK       0.075700
     34 H11          4.4200    -1.0360    11.7150 h1         1 7LK       0.075700
     35 H12          1.7020     2.2480    12.1250 h1         1 7LK       0.075700
     36 H13          1.0480     0.3450    12.4380 h1         1 7LK       0.075700
     37 H14          0.6960     1.2760    10.2310 h1         1 7LK       0.036950
     38 H15          2.0970     1.8310     9.9110 h1         1 7LK       0.036950
     39 H16          3.8050    -0.9590     3.7220 h1         1 7LK       0.062367
     40 H17          4.0520     0.5710     2.7050 h1         1 7LK       0.062367
     41 H18          3.7890     0.6690     4.4370 h1         1 7LK       0.062367
     42 H19          4.0170     1.2050    12.0420 hn         1 7LK       0.398800
     43 CAX          3.5760     0.0850     3.5490 c3         1 7LK       0.084600
@<TRIPOS>BOND
     1    23    17 1
     2    23    16 1
     3    17    18 1
     4    16    15 1
     5    18    22 1
     6    15    22 1
     7    22    12 1
     8    12    13 ar
     9    12    11 ar
    10    13    14 ar
    11    11    10 ar
    12    14     9 ar
    13    10     9 ar
    14     9     4 1
    15     4     5 2
    16     4    20 1
    17     5     6 1
    18    20    43 1
    19    20     7 1
    20     6     7 ar
    21     6     3 ar
    22     7    19 ar
    23    21     8 3
    24     8     3 1
    25     3     1 ar
    26    19     2 ar
    27     1     2 ar
    28     1    24 1
    29     2    25 1
    30     5    26 1
    31    10    27 1
    32    11    28 1
    33    13    29 1
    34    14    30 1
    35    15    31 1
    36    15    32 1
    37    16    33 1
    38    16    34 1
    39    17    35 1
    40    17    36 1
    41    18    37 1
    42    18    38 1
    43    43    39 1
    44    43    40 1
    45    43    41 1
    46    23    42 1
@<TRIPOS>SUBSTRUCTURE
     1 7LK         1 TEMP              0 ****  ****    0 ROOT
