@<TRIPOS>MOLECULE
molecule
   37    39     1     0     0
SMALL
bcc


@<TRIPOS>ATOM
      1 C1           0.0000     0.0000     0.0000 ca         1 7LL      -0.177600
      2 O1          -1.9540    -0.0970    -1.2720 o          1 7LL      -0.521100
      3 C2           1.3980     0.0000     0.0000 ca         1 7LL      -0.081000
      4 O2           1.3340    -1.8110    -3.8330 oh         1 7LL      -0.512100
      5 C3           2.0850     0.0000     1.1940 ca         1 7LL      -0.162000
      6 C4           1.3960     0.0000     2.3970 ca         1 7LL      -0.076000
      7 C5           0.0160    -0.0010     2.4120 ca         1 7LL      -0.205000
      8 C6          -0.7420    -0.0010    -1.2740 c          1 7LL       0.680700
      9 C           -0.6920    -0.0060     1.2190 ca         1 7LL       0.185100
     10 O           -2.0480    -0.0070     1.2320 oh         1 7LL      -0.475100
     11 N           -0.0770     0.1050    -2.4420 ns         1 7LL      -0.371900
     12 N1          -0.7850     0.2110    -3.6450 n2         1 7LL      -0.258300
     13 C7          -0.1470     0.4050    -4.7610 ce         1 7LL       0.159800
     14 C8           1.3220     0.3730    -4.7820 ca         1 7LL      -0.265900
     15 C9           2.0180    -0.7410    -4.3140 ca         1 7LL       0.119100
     16 C10          3.4120    -0.7630    -4.3380 ca         1 7LL      -0.178000
     17 C11          4.1380     0.2850    -4.8080 ca         1 7LL      -0.077000
     18 C12          3.5000     1.4390    -5.2960 ca         1 7LL      -0.048000
     19 C13          2.0850     1.5080    -5.2990 ca         1 7LL      -0.034000
     20 C17          4.2400     2.5290    -5.7870 ca         1 7LL      -0.108000
     21 C16          3.5890     3.6310    -6.2520 ca         1 7LL      -0.124000
     22 C15          2.1980     3.6970    -6.2490 ca         1 7LL      -0.104000
     23 C14          1.4490     2.6560    -5.7850 ca         1 7LL      -0.133000
     24 H1           1.9410    -0.0000    -0.9380 ha         1 7LL       0.130000
     25 H2           1.4840    -2.5560    -4.3900 ho         1 7LL       0.438000
     26 H3           3.1680     0.0000     1.1930 ha         1 7LL       0.135000
     27 H4           1.9450     0.0020     3.3310 ha         1 7LL       0.135000
     28 H5          -0.5140    -0.0030     3.3560 ha         1 7LL       0.142000
     29 H6          -2.3570    -0.6760     1.8190 ho         1 7LL       0.425000
     30 H7           0.9230     0.1470    -2.4450 hn         1 7LL       0.304500
     31 H8           0.4420     1.2730    -4.4930 h4         1 7LL       0.207800
     32 H9           3.9310    -1.6400    -3.9700 ha         1 7LL       0.140000
     33 H10          5.2200     0.2290    -4.8100 ha         1 7LL       0.140000
     34 H11          5.3230     2.4920    -5.7960 ha         1 7LL       0.137000
     35 H12          4.1620     4.4710    -6.6250 ha         1 7LL       0.135000
     36 H13          1.7040     4.5860    -6.6240 ha         1 7LL       0.139000
     37 H14          0.3670     2.7190    -5.7870 ha         1 7LL       0.159000
@<TRIPOS>BOND
     1    17    16 ar
     2    17    18 ar
     3    20    18 ar
     4    20    21 ar
     5    16    15 ar
     6    18    19 ar
     7    21    22 ar
     8    15     4 1
     9    15    14 ar
    10    19    14 ar
    11    19    23 ar
    12     6     7 ar
    13     6     5 ar
    14    22    23 ar
    15     7     9 ar
    16     5     3 ar
    17    14    13 1
    18     9    10 1
    19     9     1 ar
    20     3     1 ar
    21     1     8 1
    22     2     8 2
    23     8    11 1
    24    13    12 2
    25    11    12 1
    26     3    24 1
    27     4    25 1
    28     5    26 1
    29     6    27 1
    30     7    28 1
    31    10    29 1
    32    11    30 1
    33    13    31 1
    34    16    32 1
    35    17    33 1
    36    20    34 1
    37    21    35 1
    38    22    36 1
    39    23    37 1
@<TRIPOS>SUBSTRUCTURE
     1 7LL         1 TEMP              0 ****  ****    0 ROOT
