@<TRIPOS>MOLECULE
7LL
   37    39     1     0     0
SMALL
bcc


@<TRIPOS>ATOM
      1 C1           0.0000     0.0000     0.0000 ca         1 7LL      -0.195600
      2 O1          -1.9540    -0.0970    -1.2720 o          1 7LL      -0.583100
      3 C2           1.3980     0.0000     0.0000 ca         1 7LL      -0.051000
      4 O2           1.3340    -1.8110    -3.8330 oh         1 7LL      -0.492100
      5 C3           2.0850     0.0000     1.1940 ca         1 7LL      -0.149000
      6 C4           1.3960     0.0000     2.3970 ca         1 7LL      -0.039000
      7 C5           0.0160    -0.0010     2.4120 ca         1 7LL      -0.206000
      8 C6          -0.7420    -0.0010    -1.2740 c          1 7LL       0.609700
      9 C           -0.6920    -0.0060     1.2190 ca         1 7LL       0.213100
     10 O           -2.0480    -0.0070     1.2320 oh         1 7LL      -0.441100
     11 N           -0.0770     0.1050    -2.4420 ns         1 7LL       0.012100
     12 N1          -0.7850     0.2110    -3.6450 n2         1 7LL      -0.449300
     13 C7          -0.1470     0.4050    -4.7610 ce         1 7LL       0.401800
     14 C8           1.3220     0.3730    -4.7820 ca         1 7LL      -0.208900
     15 C9           2.0180    -0.7410    -4.3140 ca         1 7LL       0.132100
     16 C10          3.4120    -0.7630    -4.3380 ca         1 7LL      -0.170000
     17 C11          4.1380     0.2850    -4.8080 ca         1 7LL      -0.042000
     18 C12          3.5000     1.4390    -5.2960 ca         1 7LL      -0.062000
     19 C13          2.0850     1.5080    -5.2990 ca         1 7LL       0.011000
     20 C17          4.2400     2.5290    -5.7870 ca         1 7LL      -0.079000
     21 C16          3.5890     3.6310    -6.2520 ca         1 7LL      -0.103000
     22 C15          2.1980     3.6970    -6.2490 ca         1 7LL      -0.082000
     23 C14          1.4490     2.6560    -5.7850 ca         1 7LL      -0.098000
     24 H1           1.9410    -0.0000    -0.9380 ha         1 7LL       0.104000
     25 H2           1.6430    -2.5960    -4.2520 ho         1 7LL       0.413000
     26 H3           3.1680     0.0000     1.1930 ha         1 7LL       0.107000
     27 H4           1.9450     0.0020     3.3310 ha         1 7LL       0.101000
     28 H5          -0.5150    -0.0030     3.3560 ha         1 7LL       0.114000
     29 H6          -2.3560    -0.5490     1.9390 ho         1 7LL       0.397000
     30 H7           0.9240     0.1370    -2.4460 hn         1 7LL       0.178500
     31 H8          -0.6980     0.4860    -5.6900 h4         1 7LL       0.006800
     32 H9           3.9310    -1.6420    -3.9730 ha         1 7LL       0.112000
     33 H10          5.2200     0.2290    -4.8100 ha         1 7LL       0.107000
     34 H11          5.3230     2.4920    -5.7960 ha         1 7LL       0.107000
     35 H12          4.1620     4.4710    -6.6250 ha         1 7LL       0.104000
     36 H13          1.7040     4.5860    -6.6240 ha         1 7LL       0.104000
     37 H14          0.3670     2.7190    -5.7870 ha         1 7LL       0.118000
@<TRIPOS>BOND
     1     1     3 ar  
     2     1     8 1   
     3     1     9 ar  
     4     2     8 2   
     5     3     5 ar  
     6     3    24 1   
     7     4    15 1   
     8     4    25 1   
     9     5     6 ar  
    10     5    26 1   
    11     6     7 ar  
    12     6    27 1   
    13     7     9 ar  
    14     7    28 1   
    15     8    11 1   
    16     9    10 1   
    17    10    29 1   
    18    11    12 1   
    19    11    30 1   
    20    12    13 2   
    21    13    14 1   
    22    13    31 1   
    23    14    15 ar  
    24    14    19 ar  
    25    15    16 ar  
    26    16    17 ar  
    27    16    32 1   
    28    17    18 ar  
    29    17    33 1   
    30    18    19 ar  
    31    18    20 ar  
    32    19    23 ar  
    33    20    21 ar  
    34    20    34 1   
    35    21    22 ar  
    36    21    35 1   
    37    22    23 ar  
    38    22    36 1   
    39    23    37 1   
@<TRIPOS>SUBSTRUCTURE
     1 7LL         1 TEMP              0 ****  ****    0 ROOT
