@<TRIPOS>MOLECULE
7LM
  109   110     1     0     0
SMALL
bcc


@<TRIPOS>ATOM
      1 C5           0.0000     0.0000     0.0000 c3         1 7LM       0.163100
      2 C6          -0.5110    -0.0610    -1.4410 c3         1 7LM       0.222400
      3 C2           1.4530    -1.2130     2.1780 c3         1 7LM       0.154100
      4 C4           1.5300     0.0000     0.0000 c3         1 7LM       0.137100
      5 CAA         -4.9650     8.4020    -4.6590 c3         1 7LM       0.005900
      6 CAB         -5.3140     7.2080    -3.7680 c3         1 7LM      -0.028400
      7 CAC         -4.1710     6.9560    -2.7830 c3         1 7LM      -0.030400
      8 CAD         -4.5200     5.7620    -1.8920 c3         1 7LM      -0.027400
      9 CAE         -3.3770     5.5100    -0.9060 c3         1 7LM      -0.031400
     10 CAF         -3.7260     4.3150    -0.0160 c3         1 7LM      -0.016400
     11 CAG         -2.5840     4.0640     0.9700 c3         1 7LM      -0.095400
     12 OAI         -3.9690     2.3010     1.7050 o          1 7LM      -0.655100
     13 NAJ         -2.0430     2.4800     2.7920 ns         1 7LM      -0.174900
     14 CAK         -2.3670     1.3340     3.6450 c3         1 7LM       0.008700
     15 CAL         -1.9700     0.0390     2.9330 c3         1 7LM       0.182400
     16 O1          -0.5530     0.0080     2.7550 os         1 7LM      -0.439600
     17 C1          -0.0760    -1.1650     2.0950 c3         1 7LM       0.378900
     18 O5          -0.4750    -1.1360     0.7230 os         1 7LM      -0.396600
     19 O6          -1.9350     0.0560    -1.4470 oh         1 7LM      -0.579800
     20 O4           2.0080    -1.1690    -0.6710 oh         1 7LM      -0.565800
     21 C3           2.0340     0.0000     1.4470 c3         1 7LM       0.158100
     22 O3           3.4610    -0.0740     1.4560 oh         1 7LM      -0.577800
     23 O2           1.8560    -1.1840     3.5480 oh         1 7LM      -0.576800
     24 CAY         -1.5980     1.4470     4.9630 c3         1 7LM       0.172100
     25 OAZ         -1.8120     0.2680     5.7420 oh         1 7LM      -0.577800
     26 CBA         -2.0930     2.6680     5.7400 c3         1 7LM       0.164100
     27 OBB         -1.8780     3.8460     4.9610 oh         1 7LM      -0.597800
     28 CBC         -1.3240     2.7800     7.0580 c3         1 7LM      -0.062400
     29 CBD         -1.9030     3.9270     7.8900 c3         1 7LM      -0.029400
     30 CBE         -1.1340     4.0390     9.2080 c3         1 7LM      -0.027400
     31 CBF         -1.7120     5.1850    10.0400 c3         1 7LM      -0.029400
     32 CBG         -0.9440     5.2980    11.3580 c3         1 7LM      -0.029400
     33 CBH         -1.5230     6.4440    12.1900 c3         1 7LM      -0.029400
     34 CBI         -0.7540     6.5560    13.5080 c3         1 7LM      -0.029400
     35 CBJ         -1.3330     7.7020    14.3400 c3         1 7LM      -0.029400
     36 CBK         -0.5640     7.8140    15.6580 c3         1 7LM      -0.029400
     37 CBL         -1.1430     8.9610    16.4900 c3         1 7LM      -0.029400
     38 CBM         -0.3740     9.0730    17.8080 c3         1 7LM      -0.026400
     39 CBN         -0.9520    10.2190    18.6400 c3         1 7LM       0.029900
     40 CBO         -0.1960    10.3300    19.9380 ca         1 7LM      -0.089300
     41 CBP          0.9210    11.1410    20.0200 ca         1 7LM      -0.098500
     42 CBQ          1.6160    11.2430    21.2110 ca         1 7LM      -0.099000
     43 CBR          1.1940    10.5330    22.3190 ca         1 7LM      -0.106000
     44 CBS          0.0780     9.7210    22.2370 ca         1 7LM      -0.099000
     45 CBT         -0.6200     9.6240    21.0490 ca         1 7LM      -0.098500
     46 H1          -0.3590     0.9040     0.4770 h1         1 7LM       0.032700
     47 H2          -0.0790     0.7530    -2.0110 h1         1 7LM      -0.003800
     48 H3          -0.2240    -1.0060    -1.8860 h1         1 7LM      -0.003800
     49 H4           1.8110    -2.1220     1.7100 h1         1 7LM       0.041700
     50 H5           1.8910     0.8870    -0.5070 h1         1 7LM       0.005700
     51 H6          -4.8200     9.2810    -4.0430 hc         1 7LM      -0.000633
     52 H7          -4.0550     8.1900    -5.2070 hc         1 7LM      -0.000633
     53 H8          -5.7740     8.5800    -5.3570 hc         1 7LM      -0.000633
     54 H9          -6.2240     7.4200    -3.2200 hc         1 7LM       0.012700
     55 H10         -5.4600     6.3290    -4.3840 hc         1 7LM       0.012700
     56 H11         -4.0250     7.8350    -2.1670 hc         1 7LM       0.013200
     57 H12         -3.2610     6.7440    -3.3310 hc         1 7LM       0.013200
     58 H13         -5.4300     5.9740    -1.3440 hc         1 7LM       0.016700
     59 H14         -4.6660     4.8830    -2.5080 hc         1 7LM       0.016700
     60 H15         -3.2310     6.3890    -0.2900 hc         1 7LM       0.010200
     61 H16         -2.4670     5.2980    -1.4550 hc         1 7LM       0.010200
     62 H17         -4.6360     4.5270     0.5330 hc         1 7LM       0.031200
     63 H18         -3.8710     3.4360    -0.6310 hc         1 7LM       0.031200
     64 H19         -2.4390     4.9430     1.5860 hc         1 7LM       0.023700
     65 H20         -1.6760     3.8570     0.4170 hc         1 7LM       0.023700
     66 H21         -1.1580     2.9380     2.8840 hn         1 7LM       0.186500
     67 H22         -3.4310     1.3240     3.8480 h1         1 7LM       0.068700
     68 H23         -2.4570    -0.0050     1.9660 h1         1 7LM       0.023700
     69 H24         -2.2780    -0.8100     3.5300 h1         1 7LM       0.023700
     70 H25         -0.4890    -2.0460     2.5700 h2         1 7LM       0.032700
     71 H26         -2.2680    -0.1980    -2.2920 ho         1 7LM       0.390000
     72 H27          2.6510    -0.9210    -1.3150 ho         1 7LM       0.390000
     73 H28          1.7100     0.9080     1.9410 h1         1 7LM       0.024700
     74 H29          3.8180     0.7710     1.6770 ho         1 7LM       0.389000
     75 H30          2.3070    -1.9840     3.7600 ho         1 7LM       0.393000
     76 H31         -0.5400     1.5550     4.7560 h1         1 7LM       0.027700
     77 H32         -0.9850    -0.0540     6.0590 ho         1 7LM       0.399000
     78 H33         -3.1510     2.5600     5.9470 h1         1 7LM       0.018700
     79 H34         -2.5560     4.4750     5.1490 ho         1 7LM       0.398000
     80 H35         -1.4150     1.8520     7.6090 hc         1 7LM       0.028200
     81 H36         -0.2790     2.9760     6.8510 hc         1 7LM       0.028200
     82 H37         -1.8120     4.8550     7.3380 hc         1 7LM       0.015200
     83 H38         -2.9480     3.7310     8.0970 hc         1 7LM       0.015200
     84 H39         -0.0890     4.2350     9.0010 hc         1 7LM       0.015700
     85 H40         -1.2250     3.1110     9.7600 hc         1 7LM       0.015700
     86 H41         -1.6210     6.1130     9.4880 hc         1 7LM       0.014700
     87 H42         -2.7580     4.9890    10.2470 hc         1 7LM       0.014700
     88 H43         -1.0340     4.3690    11.9100 hc         1 7LM       0.014700
     89 H44          0.1010     5.4940    11.1510 hc         1 7LM       0.014700
     90 H45         -2.5680     6.2470    12.3980 hc         1 7LM       0.014700
     91 H46         -1.4330     7.3720    11.6390 hc         1 7LM       0.014700
     92 H47          0.2910     6.7530    13.3000 hc         1 7LM       0.014700
     93 H48         -0.8440     5.6280    14.0590 hc         1 7LM       0.014700
     94 H49         -2.3780     7.5050    14.5480 hc         1 7LM       0.014700
     95 H50         -1.2420     8.6300    13.7890 hc         1 7LM       0.014700
     96 H51         -0.6550     6.8860    16.2100 hc         1 7LM       0.015200
     97 H52          0.4810     8.0100    15.4510 hc         1 7LM       0.015200
     98 H53         -1.0520     9.8890    15.9390 hc         1 7LM       0.014700
     99 H54         -2.1880     8.7650    16.6970 hc         1 7LM       0.014700
    100 H55          0.6710     9.2690    17.6010 hc         1 7LM       0.017700
    101 H56         -0.4650     8.1450    18.3590 hc         1 7LM       0.017700
    102 H57         -1.9970    10.0230    18.8470 hc         1 7LM       0.017700
    103 H58         -0.8610    11.1470    18.0890 hc         1 7LM       0.017700
    104 H59          1.2510    11.6970    19.1510 ha         1 7LM       0.105000
    105 H60          2.4900    11.8790    21.2760 ha         1 7LM       0.101000
    106 H61          1.7400    10.6110    23.2520 ha         1 7LM       0.101000
    107 H62         -0.2530     9.1660    23.1070 ha         1 7LM       0.101000
    108 H63         -1.4940     8.9870    20.9850 ha         1 7LM       0.105000
    109 CAH         -2.9160     2.8840     1.8480 c          1 7LM       0.570100
@<TRIPOS>BOND
     1     1     2 1   
     2     1     4 1   
     3     1    18 1   
     4     1    46 1   
     5     2    19 1   
     6     2    47 1   
     7     2    48 1   
     8     3    17 1   
     9     3    21 1   
    10     3    23 1   
    11     3    49 1   
    12     4    20 1   
    13     4    21 1   
    14     4    50 1   
    15     5     6 1   
    16     5    51 1   
    17     5    52 1   
    18     5    53 1   
    19     6     7 1   
    20     6    54 1   
    21     6    55 1   
    22     7     8 1   
    23     7    56 1   
    24     7    57 1   
    25     8     9 1   
    26     8    58 1   
    27     8    59 1   
    28     9    10 1   
    29     9    60 1   
    30     9    61 1   
    31    10    11 1   
    32    10    62 1   
    33    10    63 1   
    34    11    64 1   
    35    11    65 1   
    36    11   109 1   
    37    12   109 2   
    38    13    14 1   
    39    13    66 1   
    40    13   109 1   
    41    14    15 1   
    42    14    24 1   
    43    14    67 1   
    44    15    16 1   
    45    15    68 1   
    46    15    69 1   
    47    16    17 1   
    48    17    18 1   
    49    17    70 1   
    50    19    71 1   
    51    20    72 1   
    52    21    22 1   
    53    21    73 1   
    54    22    74 1   
    55    23    75 1   
    56    24    25 1   
    57    24    26 1   
    58    24    76 1   
    59    25    77 1   
    60    26    27 1   
    61    26    28 1   
    62    26    78 1   
    63    27    79 1   
    64    28    29 1   
    65    28    80 1   
    66    28    81 1   
    67    29    30 1   
    68    29    82 1   
    69    29    83 1   
    70    30    31 1   
    71    30    84 1   
    72    30    85 1   
    73    31    32 1   
    74    31    86 1   
    75    31    87 1   
    76    32    33 1   
    77    32    88 1   
    78    32    89 1   
    79    33    34 1   
    80    33    90 1   
    81    33    91 1   
    82    34    35 1   
    83    34    92 1   
    84    34    93 1   
    85    35    36 1   
    86    35    94 1   
    87    35    95 1   
    88    36    37 1   
    89    36    96 1   
    90    36    97 1   
    91    37    38 1   
    92    37    98 1   
    93    37    99 1   
    94    38    39 1   
    95    38   100 1   
    96    38   101 1   
    97    39    40 1   
    98    39   102 1   
    99    39   103 1   
   100    40    41 ar  
   101    40    45 ar  
   102    41    42 ar  
   103    41   104 1   
   104    42    43 ar  
   105    42   105 1   
   106    43    44 ar  
   107    43   106 1   
   108    44    45 ar  
   109    44   107 1   
   110    45   108 1   
@<TRIPOS>SUBSTRUCTURE
     1 7LM         1 TEMP              0 ****  ****    0 ROOT
