@<TRIPOS>MOLECULE
molecule
  109   110     1     0     0
SMALL
bcc


@<TRIPOS>ATOM
      1 C5           0.0000     0.0000     0.0000 c3         1 7LM       0.146100
      2 C6          -0.5110    -0.0610    -1.4410 c3         1 7LM       0.148400
      3 C2           1.4530    -1.2130     2.1780 c3         1 7LM       0.133100
      4 C4           1.5300     0.0000     0.0000 c3         1 7LM       0.098100
      5 CAA         -4.9650     8.4020    -4.6590 c3         1 7LM      -0.092100
      6 CAB         -5.3140     7.2080    -3.7680 c3         1 7LM      -0.084400
      7 CAC         -4.1710     6.9560    -2.7830 c3         1 7LM      -0.082400
      8 CAD         -4.5200     5.7620    -1.8920 c3         1 7LM      -0.080400
      9 CAE         -3.3770     5.5100    -0.9060 c3         1 7LM      -0.085400
     10 CAF         -3.7260     4.3150    -0.0160 c3         1 7LM      -0.067400
     11 CAG         -2.5840     4.0640     0.9700 c3         1 7LM      -0.154400
     12 OAI         -3.9690     2.3010     1.7050 o          1 7LM      -0.616100
     13 NAJ         -2.0430     2.4800     2.7920 ns         1 7LM      -0.566900
     14 CAK         -2.3670     1.3340     3.6450 c3         1 7LM       0.123700
     15 CAL         -1.9700     0.0390     2.9330 c3         1 7LM       0.115400
     16 O1          -0.5530     0.0080     2.7550 os         1 7LM      -0.453600
     17 C1          -0.0760    -1.1650     2.0950 c3         1 7LM       0.327900
     18 O5          -0.4750    -1.1360     0.7230 os         1 7LM      -0.409600
     19 O6          -1.9350     0.0560    -1.4470 oh         1 7LM      -0.597800
     20 O4           2.0080    -1.1690    -0.6710 oh         1 7LM      -0.586800
     21 C3           2.0340     0.0000     1.4470 c3         1 7LM       0.126100
     22 O3           3.4610    -0.0740     1.4560 oh         1 7LM      -0.597800
     23 O2           1.8560    -1.1840     3.5480 oh         1 7LM      -0.595800
     24 CAY         -1.5980     1.4470     4.9630 c3         1 7LM       0.138100
     25 OAZ         -1.8120     0.2680     5.7420 oh         1 7LM      -0.599800
     26 CBA         -2.0930     2.6680     5.7400 c3         1 7LM       0.128100
     27 OBB         -1.8780     3.8460     4.9610 oh         1 7LM      -0.612800
     28 CBC         -1.3240     2.7800     7.0580 c3         1 7LM      -0.109400
     29 CBD         -1.9030     3.9270     7.8900 c3         1 7LM      -0.083400
     30 CBE         -1.1340     4.0390     9.2080 c3         1 7LM      -0.080400
     31 CBF         -1.7120     5.1850    10.0400 c3         1 7LM      -0.082400
     32 CBG         -0.9440     5.2980    11.3580 c3         1 7LM      -0.081400
     33 CBH         -1.5230     6.4440    12.1900 c3         1 7LM      -0.081400
     34 CBI         -0.7540     6.5560    13.5080 c3         1 7LM      -0.082400
     35 CBJ         -1.3330     7.7020    14.3400 c3         1 7LM      -0.082400
     36 CBK         -0.5640     7.8140    15.6580 c3         1 7LM      -0.081400
     37 CBL         -1.1430     8.9610    16.4900 c3         1 7LM      -0.083400
     38 CBM         -0.3740     9.0730    17.8080 c3         1 7LM      -0.077400
     39 CBN         -0.9520    10.2190    18.6400 c3         1 7LM      -0.036100
     40 CBO         -0.1960    10.3300    19.9380 ca         1 7LM      -0.081300
     41 CBP          0.9210    11.1410    20.0200 ca         1 7LM      -0.126000
     42 CBQ          1.6160    11.2430    21.2110 ca         1 7LM      -0.126000
     43 CBR          1.1940    10.5330    22.3190 ca         1 7LM      -0.133000
     44 CBS          0.0780     9.7210    22.2370 ca         1 7LM      -0.126000
     45 CBT         -0.6200     9.6240    21.0490 ca         1 7LM      -0.126000
     46 H1          -0.3590     0.9040     0.4770 h1         1 7LM       0.067700
     47 H2          -0.0790     0.7530    -2.0110 h1         1 7LM       0.033700
     48 H3          -0.2240    -1.0060    -1.8860 h1         1 7LM       0.033700
     49 H4           1.8110    -2.1220     1.7100 h1         1 7LM       0.080700
     50 H5           1.8910     0.8870    -0.5070 h1         1 7LM       0.039700
     51 H6          -4.8200     9.2810    -4.0430 hc         1 7LM       0.032033
     52 H7          -4.0550     8.1900    -5.2070 hc         1 7LM       0.032033
     53 H8          -5.7740     8.5800    -5.3570 hc         1 7LM       0.032033
     54 H9          -6.2240     7.4200    -3.2200 hc         1 7LM       0.040700
     55 H10         -5.4600     6.3290    -4.3840 hc         1 7LM       0.040700
     56 H11         -4.0250     7.8350    -2.1670 hc         1 7LM       0.039700
     57 H12         -3.2610     6.7440    -3.3310 hc         1 7LM       0.039700
     58 H13         -5.4300     5.9740    -1.3440 hc         1 7LM       0.043700
     59 H14         -4.6660     4.8830    -2.5080 hc         1 7LM       0.043700
     60 H15         -3.2310     6.3890    -0.2900 hc         1 7LM       0.037200
     61 H16         -2.4670     5.2980    -1.4550 hc         1 7LM       0.037200
     62 H17         -4.6360     4.5270     0.5330 hc         1 7LM       0.059700
     63 H18         -3.8710     3.4360    -0.6310 hc         1 7LM       0.059700
     64 H19         -2.4390     4.9430     1.5860 hc         1 7LM       0.056200
     65 H20         -1.6760     3.8570     0.4170 hc         1 7LM       0.056200
     66 H21         -1.1580     2.9380     2.8840 hn         1 7LM       0.325500
     67 H22         -3.4310     1.3240     3.8480 h1         1 7LM       0.095700
     68 H23         -2.4570    -0.0050     1.9660 h1         1 7LM       0.055700
     69 H24         -2.2780    -0.8100     3.5300 h1         1 7LM       0.055700
     70 H25         -0.4890    -2.0460     2.5700 h2         1 7LM       0.082700
     71 H26         -2.2680    -0.1980    -2.2920 ho         1 7LM       0.404000
     72 H27          2.6510    -0.9210    -1.3150 ho         1 7LM       0.404000
     73 H28          1.7100     0.9080     1.9410 h1         1 7LM       0.061700
     74 H29          3.8180     0.7710     1.6770 ho         1 7LM       0.404000
     75 H30          2.3070    -1.9840     3.7600 ho         1 7LM       0.407000
     76 H31         -0.5400     1.5550     4.7560 h1         1 7LM       0.061700
     77 H32         -0.9850    -0.0540     6.0590 ho         1 7LM       0.414000
     78 H33         -3.1510     2.5600     5.9470 h1         1 7LM       0.048700
     79 H34         -2.5560     4.4750     5.1490 ho         1 7LM       0.408000
     80 H35         -1.4150     1.8520     7.6090 hc         1 7LM       0.053700
     81 H36         -0.2790     2.9760     6.8510 hc         1 7LM       0.053700
     82 H37         -1.8120     4.8550     7.3380 hc         1 7LM       0.041200
     83 H38         -2.9480     3.7310     8.0970 hc         1 7LM       0.041200
     84 H39         -0.0890     4.2350     9.0010 hc         1 7LM       0.042700
     85 H40         -1.2250     3.1110     9.7600 hc         1 7LM       0.042700
     86 H41         -1.6210     6.1130     9.4880 hc         1 7LM       0.041200
     87 H42         -2.7580     4.9890    10.2470 hc         1 7LM       0.041200
     88 H43         -1.0340     4.3690    11.9100 hc         1 7LM       0.041200
     89 H44          0.1010     5.4940    11.1510 hc         1 7LM       0.041200
     90 H45         -2.5680     6.2470    12.3980 hc         1 7LM       0.041200
     91 H46         -1.4330     7.3720    11.6390 hc         1 7LM       0.041200
     92 H47          0.2910     6.7530    13.3000 hc         1 7LM       0.041200
     93 H48         -0.8440     5.6280    14.0590 hc         1 7LM       0.041200
     94 H49         -2.3780     7.5050    14.5480 hc         1 7LM       0.041200
     95 H50         -1.2420     8.6300    13.7890 hc         1 7LM       0.041200
     96 H51         -0.6550     6.8860    16.2100 hc         1 7LM       0.041700
     97 H52          0.4810     8.0100    15.4510 hc         1 7LM       0.041700
     98 H53         -1.0520     9.8890    15.9390 hc         1 7LM       0.040700
     99 H54         -2.1880     8.7650    16.6970 hc         1 7LM       0.040700
    100 H55          0.6710     9.2690    17.6010 hc         1 7LM       0.045700
    101 H56         -0.4650     8.1450    18.3590 hc         1 7LM       0.045700
    102 H57         -1.9970    10.0230    18.8470 hc         1 7LM       0.047700
    103 H58         -0.8610    11.1470    18.0890 hc         1 7LM       0.047700
    104 H59          1.2510    11.6970    19.1510 ha         1 7LM       0.129000
    105 H60          2.4900    11.8790    21.2760 ha         1 7LM       0.128000
    106 H61          1.7400    10.6110    23.2520 ha         1 7LM       0.128000
    107 H62         -0.2530     9.1660    23.1070 ha         1 7LM       0.128000
    108 H63         -1.4940     8.9870    20.9850 ha         1 7LM       0.129000
    109 CAH         -2.9160     2.8840     1.8480 c          1 7LM       0.659100
@<TRIPOS>BOND
     1    20     4 1   
     2    22    21 1   
     3     4    21 1   
     4     4     1 1   
     5     2    19 1   
     6     2     1 1   
     7    21     3 1   
     8     1    18 1   
     9    18    17 1   
    10     3    17 1   
    11     3    23 1   
    12    17    16 1   
    13    16    15 1   
    14    10    11 1   
    15    10     9 1   
    16    11   109 1   
    17    15    14 1   
    18   109    13 1   
    19   109    12 2   
    20    13    14 1   
    21     9     8 1   
    22    14    24 1   
    23     8     7 1   
    24    24    25 1   
    25    24    26 1   
    26     7     6 1   
    27    26    27 1   
    28    26    28 1   
    29     6     5 1   
    30    28    29 1   
    31    30    29 1   
    32    30    31 1   
    33    31    32 1   
    34    32    33 1   
    35    33    34 1   
    36    34    35 1   
    37    35    36 1   
    38    36    37 1   
    39    37    38 1   
    40    38    39 1   
    41    45    44 ar  
    42    45    40 ar  
    43    44    43 ar  
    44    40    39 1   
    45    40    41 ar  
    46    43    42 ar  
    47    41    42 ar  
    48     1    46 1   
    49     2    47 1   
    50     2    48 1   
    51     3    49 1   
    52     4    50 1   
    53     5    51 1   
    54     5    52 1   
    55     5    53 1   
    56     6    54 1   
    57     6    55 1   
    58     7    56 1   
    59     7    57 1   
    60     8    58 1   
    61     8    59 1   
    62     9    60 1   
    63     9    61 1   
    64    10    62 1   
    65    10    63 1   
    66    11    64 1   
    67    11    65 1   
    68    13    66 1   
    69    14    67 1   
    70    15    68 1   
    71    15    69 1   
    72    17    70 1   
    73    19    71 1   
    74    20    72 1   
    75    21    73 1   
    76    22    74 1   
    77    23    75 1   
    78    24    76 1   
    79    25    77 1   
    80    26    78 1   
    81    27    79 1   
    82    28    80 1   
    83    28    81 1   
    84    29    82 1   
    85    29    83 1   
    86    30    84 1   
    87    30    85 1   
    88    31    86 1   
    89    31    87 1   
    90    32    88 1   
    91    32    89 1   
    92    33    90 1   
    93    33    91 1   
    94    34    92 1   
    95    34    93 1   
    96    35    94 1   
    97    35    95 1   
    98    36    96 1   
    99    36    97 1   
   100    37    98 1   
   101    37    99 1   
   102    38   100 1   
   103    38   101 1   
   104    39   102 1   
   105    39   103 1   
   106    41   104 1   
   107    42   105 1   
   108    43   106 1   
   109    44   107 1   
   110    45   108 1   
@<TRIPOS>SUBSTRUCTURE
     1 7LM         1 TEMP              0 ****  ****    0 ROOT
