@<TRIPOS>MOLECULE
7LN
   67    70     1     0     0
SMALL
bcc


@<TRIPOS>ATOM
      1 N26          0.0000     0.0000     0.0000 n2         1 7LN      -0.743100
      2 C26          1.3080     0.0000     0.0000 ce         1 7LN       0.536800
      3 C25          2.0440     0.0000     1.2730 cc         1 7LN      -0.124000
      4 S21          3.7940     0.0000     1.4390 ss         1 7LN      -0.238800
      5 C22          3.6800     0.0000     3.1410 cc         1 7LN       0.013900
      6 C23          2.4030    -0.0000     3.5340 cd         1 7LN      -0.127000
      7 C24          1.4780     0.0060     2.5130 cd         1 7LN      -0.069000
      8 N27          1.9970    -0.0010    -1.1980 nu         1 7LN      -0.287600
      9 C31          1.3030    -0.1280    -2.4040 ca         1 7LN       0.031600
     10 C36          1.6830     0.6240    -3.5080 ca         1 7LN      -0.132000
     11 C32          0.2350    -1.0100    -2.5030 ca         1 7LN      -0.068000
     12 C33         -0.4480    -1.1340    -3.6970 ca         1 7LN      -0.073000
     13 C34         -0.0700    -0.3810    -4.7930 ca         1 7LN      -0.098000
     14 C35          0.9960     0.4960    -4.6990 ca         1 7LN      -0.122300
     15 C37          1.4080     1.3110    -5.8980 c3         1 7LN       0.280700
     16 O38          2.3780     0.5870    -6.6560 os         1 7LN      -0.421600
     17 C20          2.7580     1.2260    -7.8770 c3         1 7LN       0.162100
     18 C21          4.1710     0.7880    -8.2640 c3         1 7LN      -0.053200
     19 N22          5.1290     1.2840    -7.2660 nz         1 7LN       0.089400
     20 C19          1.7780     0.8300    -8.9840 c3         1 7LN       0.195400
     21 O18          1.8910    -0.5710    -9.2410 os         1 7LN      -0.419600
     22 C17          1.0160    -1.0470   -10.2650 c3         1 7LN       0.277700
     23 C15          1.2170    -2.5290   -10.4500 ca         1 7LN      -0.105300
     24 C14          0.4660    -3.4250    -9.7120 ca         1 7LN      -0.030000
     25 C13          0.6440    -4.7880    -9.8760 ca         1 7LN      -0.075000
     26 C12          1.5740    -5.2610   -10.7770 ca         1 7LN      -0.060000
     27 C16          2.1460    -2.9870   -11.3590 ca         1 7LN      -0.039000
     28 C11          2.3360    -4.3620   -11.5270 ca         1 7LN      -0.005600
     29 N07          3.2590    -4.8240   -12.4230 ne         1 7LN      -0.311100
     30 C06          2.8670    -5.4790   -13.4940 cf         1 7LN       0.230800
     31 N06          3.7980    -6.0760   -14.3180 nz         1 7LN       0.205400
     32 C05          1.4370    -5.5750   -13.8130 cd         1 7LN      -0.195000
     33 S01          0.1500    -4.7020   -12.9930 ss         1 7LN      -0.130800
     34 C02         -1.0340    -5.4180   -13.9910 cd         1 7LN       0.051900
     35 C03         -0.4760    -6.2530   -14.8740 cc         1 7LN      -0.129000
     36 C04          0.8950    -6.3520   -14.7950 cc         1 7LN      -0.051000
     37 H26         -0.5000     0.0000     0.8670 hn         1 7LN       0.344400
     38 H27          2.9880     0.1430    -1.2040 hn         1 7LN       0.288800
     39 H24          0.4080     0.0070     2.6790 ha         1 7LN       0.131000
     40 H22          4.5300    -0.0020     3.8130 h4         1 7LN       0.159000
     41 H23          2.1160     0.0010     4.5790 ha         1 7LN       0.134000
     42 H36          2.5170     1.3110    -3.4350 ha         1 7LN       0.096000
     43 H32         -0.0620    -1.6000    -1.6450 ha         1 7LN       0.140000
     44 H33         -1.2820    -1.8210    -3.7740 ha         1 7LN       0.112000
     45 H34         -0.6070    -0.4810    -5.7280 ha         1 7LN       0.100000
     46 H371         1.8360     2.2500    -5.5660 h1         1 7LN       0.001700
     47 H372         0.5410     1.5090    -6.5160 h1         1 7LN       0.001700
     48 H20          2.7370     2.3010    -7.7430 h1         1 7LN       0.028700
     49 H211         4.4210     1.1930    -9.2370 hx         1 7LN       0.093200
     50 H212         4.2160    -0.2940    -8.3010 hx         1 7LN       0.093200
     51 H191         0.7670     1.0600    -8.6710 h1         1 7LN       0.018200
     52 H192         2.0110     1.3830    -9.8860 h1         1 7LN       0.018200
     53 H221         6.0590     1.1950    -7.6240 hn         1 7LN       0.225467
     54 H222         4.9380     2.2470    -7.0700 hn         1 7LN       0.225467
     55 H171        -0.0120    -0.8550    -9.9800 h1         1 7LN       0.006700
     56 H172         1.2340    -0.5340   -11.1940 h1         1 7LN       0.006700
     57 H14         -0.2660    -3.0590    -9.0010 ha         1 7LN       0.124000
     58 H16          2.6840    -2.2860   -11.9850 ha         1 7LN       0.115000
     59 H13          0.0560    -5.4840    -9.2900 ha         1 7LN       0.130000
     60 H12          1.7730    -6.3240   -10.8410 ha         1 7LN       0.119000
     61 H061         3.6560    -5.7680   -15.2600 hn         1 7LN       0.219467
     62 H062         3.6940    -7.0710   -14.2740 hn         1 7LN       0.219467
     63 H04          1.4850    -6.9880   -15.4450 ha         1 7LN       0.111000
     64 H02         -2.0970    -5.2230   -13.9190 h4         1 7LN       0.172000
     65 H03         -1.0580    -6.8070   -15.6000 ha         1 7LN       0.150000
     66 H223         5.0420     0.7490    -6.4250 hn         1 7LN       0.225467
     67 H063         4.7190    -5.8330   -14.0120 hn         1 7LN       0.219467
@<TRIPOS>BOND
     1     1     2 2   
     2     1    37 1   
     3     2     3 1   
     4     2     8 1   
     5     3     4 1   
     6     3     7 2   
     7     4     5 1   
     8     5     6 2   
     9     5    40 1   
    10     6     7 1   
    11     6    41 1   
    12     7    39 1   
    13     8     9 1   
    14     8    38 1   
    15     9    10 ar  
    16     9    11 ar  
    17    10    14 ar  
    18    10    42 1   
    19    11    12 ar  
    20    11    43 1   
    21    12    13 ar  
    22    12    44 1   
    23    13    14 ar  
    24    13    45 1   
    25    14    15 1   
    26    15    16 1   
    27    15    46 1   
    28    15    47 1   
    29    16    17 1   
    30    17    18 1   
    31    17    20 1   
    32    17    48 1   
    33    18    19 1   
    34    18    49 1   
    35    18    50 1   
    36    19    53 1   
    37    19    54 1   
    38    19    66 1   
    39    20    21 1   
    40    20    51 1   
    41    20    52 1   
    42    21    22 1   
    43    22    23 1   
    44    22    55 1   
    45    22    56 1   
    46    23    24 ar  
    47    23    27 ar  
    48    24    25 ar  
    49    24    57 1   
    50    25    26 ar  
    51    25    59 1   
    52    26    28 ar  
    53    26    60 1   
    54    27    28 ar  
    55    27    58 1   
    56    28    29 1   
    57    29    30 2   
    58    30    31 1   
    59    30    32 1   
    60    31    61 1   
    61    31    62 1   
    62    31    67 1   
    63    32    33 1   
    64    32    36 2   
    65    33    34 1   
    66    34    35 2   
    67    34    64 1   
    68    35    36 1   
    69    35    65 1   
    70    36    63 1   
@<TRIPOS>SUBSTRUCTURE
     1 7LN         1 TEMP              0 ****  ****    0 ROOT
