@<TRIPOS>MOLECULE
molecule
   22    22     1     0     0
SMALL
bcc


@<TRIPOS>ATOM
      1 O4           0.0000     0.0000     0.0000 oh         1 7LQ      -0.609800
      2 C4           1.4290     0.0000     0.0000 c3         1 7LQ       0.151100
      3 C3           1.9430     0.0000     1.4410 c3         1 7LQ       0.164300
      4 O3           1.6820     1.2720     2.0370 oh         1 7LQ      -0.605800
      5 C2           3.4200    -0.2650     1.4620 c2         1 7LQ      -0.198200
      6 C1           4.0820    -0.7690     0.4700 c2         1 7LQ      -0.155200
      7 C7           3.4640    -1.1500    -0.8430 c3         1 7LQ      -0.043200
      8 C5           1.9450    -1.2630    -0.7000 c3         1 7LQ      -0.066700
      9 C6           1.3060    -1.3830    -2.0850 c3         1 7LQ       0.145400
     10 O6           1.7160    -2.6080    -2.6950 oh         1 7LQ      -0.614800
     11 H1          -0.3140     0.8800    -0.1240 ho         1 7LQ       0.410000
     12 H2           1.7980     0.8780    -0.5170 h1         1 7LQ       0.051700
     13 H3           1.4340    -0.7750     2.0010 h1         1 7LQ       0.053700
     14 H4           1.4340     1.1510     2.9390 ho         1 7LQ       0.405000
     15 H5           3.9670    -0.0190     2.3640 ha         1 7LQ       0.126000
     16 H6           5.1460    -0.9260     0.5960 ha         1 7LQ       0.123000
     17 H7           3.6990    -0.3930    -1.5810 hc         1 7LQ       0.061700
     18 H8           3.8650    -2.1050    -1.1620 hc         1 7LQ       0.061700
     19 H9           1.7010    -2.1330    -0.1030 hc         1 7LQ       0.076700
     20 H10          0.2270    -1.3730    -1.9860 h1         1 7LQ       0.029700
     21 H11          1.6200    -0.5490    -2.7010 h1         1 7LQ       0.029700
     22 H12          1.1800    -2.7770    -3.4520 ho         1 7LQ       0.403000
@<TRIPOS>BOND
     1     9     8 1
     2     9    10 1
     3     8     7 1
     4     8     2 1
     5     7     6 1
     6     6     5 2
     7     1     2 1
     8     2     3 1
     9     5     3 1
    10     3     4 1
    11     1    11 1
    12     2    12 1
    13     3    13 1
    14     4    14 1
    15     5    15 1
    16     6    16 1
    17     7    17 1
    18     7    18 1
    19     8    19 1
    20     9    20 1
    21     9    21 1
    22    10    22 1
@<TRIPOS>SUBSTRUCTURE
     1 7LQ         1 TEMP              0 ****  ****    0 ROOT
