@<TRIPOS>MOLECULE
7LR
   50    52     1     0     0
SMALL
bcc


@<TRIPOS>ATOM
      1 N3           0.0000     0.0000     0.0000 na         1 7LR       0.214700
      2 C4           1.3660     0.0000     0.0000 cc         1 7LR       0.329700
      3 C6          -7.4760    -3.4170     2.7180 ca         1 7LR       0.012600
      4 C7          -0.4120     0.0060     1.3220 ca         1 7LR      -0.268200
      5 C8          -7.4050    -5.7870     1.9970 c3         1 7LR       0.180800
      6 C10         -4.0220    -0.6270     3.3860 c          1 7LR       0.558100
      7 C13         -1.6520     0.0090     1.9410 ca         1 7LR      -0.074000
      8 C17         -6.5770    -2.6750     3.4750 ca         1 7LR      -0.052000
      9 C20         -7.9580    -1.4750     1.3950 ca         1 7LR      -0.029600
     10 C22         -5.3920    -0.5370     4.0060 c3         1 7LR      -0.048100
     11 C26         -7.0530    -0.7430     2.1430 ca         1 7LR      -0.060000
     12 S1          -8.2650    -5.2110     4.4960 s6         1 7LR       0.963900
     13 N2          -7.6890    -4.7660     3.0090 nh         1 7LR      -0.356900
     14 N5           1.8110     0.0000     1.2310 nd         1 7LR      -0.600100
     15 C9           0.7600     0.0110     2.0970 ca         1 7LR       0.104400
     16 C11         -8.1670    -2.8120     1.6760 ca         1 7LR      -0.129000
     17 C12         -5.9440    -6.1550     2.0520 c          1 7LR       0.278100
     18 O14         -7.7430    -6.5180     4.6960 o          1 7LR      -0.570800
     19 O15         -7.8990    -4.1370     5.3500 o          1 7LR      -0.570800
     20 C16         -6.3680    -1.3410     3.1850 ca         1 7LR      -0.030300
     21 C19         -1.7300     0.0150     3.3250 ca         1 7LR      -0.119400
     22 O21         -3.8540    -1.2800     2.3770 o          1 7LR      -0.661100
     23 O23         -5.2140    -5.6180     2.8570 o          1 7LR      -0.365100
     24 N24          2.1590    -0.0000    -1.1280 nv         1 7LR      -0.475800
     25 C25          0.6680     0.0170     3.4900 ca         1 7LR      -0.037000
     26 C27        -10.0660    -5.2710     4.2860 c3         1 7LR       0.032700
     27 N28         -5.4500    -7.0820     1.2080 nz         1 7LR       0.201600
     28 C29         -0.5700     0.0190     4.0940 ca         1 7LR      -0.134000
     29 H1          -0.5930     0.0000    -0.8060 hn         1 7LR       0.125700
     30 H2          -8.0070    -6.6660     2.1920 h1         1 7LR       0.054200
     31 H3          -7.6420    -5.3970     1.0140 h1         1 7LR       0.054200
     32 H4          -2.5530     0.0970     1.3470 ha         1 7LR       0.125000
     33 H5          -6.0650    -3.1350     4.3120 ha         1 7LR       0.141000
     34 H6          -5.3590    -0.9310     5.0150 hc         1 7LR       0.043200
     35 H7          -5.7100     0.4980     4.0330 hc         1 7LR       0.043200
     36 H8          -6.8890     0.3040     1.9190 ha         1 7LR       0.126000
     37 H10         -8.8720    -3.3860     1.0870 ha         1 7LR       0.109000
     38 H11         -3.0790     0.4050     4.8710 hn         1 7LR       0.168500
     39 H12          1.7370     0.0020    -2.0360 hn         1 7LR       0.276800
     40 H13          3.1560    -0.0000    -1.0390 hn         1 7LR       0.276800
     41 H14          1.5670     0.0190     4.0940 ha         1 7LR       0.116000
     42 H15        -10.3070    -5.8250     3.3860 h1         1 7LR       0.070700
     43 H16        -10.4540    -4.2630     4.2040 h1         1 7LR       0.070700
     44 H17        -10.5140    -5.7620     5.1420 h1         1 7LR       0.070700
     45 H18         -6.1850    -7.6980     0.9220 hn         1 7LR       0.244133
     46 H19         -4.7350    -7.6070     1.6700 hn         1 7LR       0.244133
     47 H20         -0.6410     0.0240     5.1750 ha         1 7LR       0.106000
     48 N18         -2.9830     0.0180     3.9530 ns         1 7LR      -0.009100
     49 H283        -5.0520    -6.6270     0.4100 hn         1 7LR       0.244133
     50 Cl1         -8.8140    -0.7190     0.0880 cl         1 7LR       0.004600
@<TRIPOS>BOND
     1     1     2 1   
     2     1     4 1   
     3     1    29 1   
     4     2    14 2   
     5     2    24 1   
     6     3     8 ar  
     7     3    13 1   
     8     3    16 ar  
     9     4     7 ar  
    10     4    15 ar  
    11     5    13 1   
    12     5    17 1   
    13     5    30 1   
    14     5    31 1   
    15     6    10 1   
    16     6    22 2   
    17     6    48 1   
    18     7    21 ar  
    19     7    32 1   
    20     8    20 ar  
    21     8    33 1   
    22     9    11 ar  
    23     9    16 ar  
    24     9    50 1   
    25    10    20 1   
    26    10    34 1   
    27    10    35 1   
    28    11    20 ar  
    29    11    36 1   
    30    12    13 1   
    31    12    18 2   
    32    12    19 2   
    33    12    26 1   
    34    14    15 1   
    35    15    25 ar  
    36    16    37 1   
    37    17    23 2   
    38    17    27 1   
    39    21    28 ar  
    40    21    48 1   
    41    24    39 1   
    42    24    40 1   
    43    25    28 ar  
    44    25    41 1   
    45    26    42 1   
    46    26    43 1   
    47    26    44 1   
    48    27    45 1   
    49    27    46 1   
    50    27    49 1   
    51    28    47 1   
    52    38    48 1   
@<TRIPOS>SUBSTRUCTURE
     1 7LR         1 TEMP              0 ****  ****    0 ROOT
