@<TRIPOS>MOLECULE
molecule
   50    52     1     0     0
SMALL
bcc


@<TRIPOS>ATOM
      1 N3           0.0000     0.0000     0.0000 na         1 7LR      -0.300300
      2 C4           1.3660     0.0000     0.0000 cc         1 7LR       0.677700
      3 C6          -7.4760    -3.4170     2.7180 ca         1 7LR       0.079600
      4 C7          -0.4120     0.0060     1.3220 ca         1 7LR      -0.088200
      5 C8          -7.4050    -5.7870     1.9970 c3         1 7LR       0.178800
      6 C10         -4.0220    -0.6270     3.3860 c          1 7LR       0.659100
      7 C13         -1.6520     0.0090     1.9410 ca         1 7LR      -0.120000
      8 C17         -6.5770    -2.6750     3.4750 ca         1 7LR      -0.072000
      9 C20         -7.9580    -1.4750     1.3950 ca         1 7LR       0.034400
     10 C22         -5.3920    -0.5370     4.0060 c3         1 7LR      -0.116100
     11 C26         -7.0530    -0.7430     2.1430 ca         1 7LR      -0.081000
     12 S1          -8.2650    -5.2110     4.4960 s6         1 7LR       1.312900
     13 N2          -7.6890    -4.7660     3.0090 nh         1 7LR      -0.653900
     14 N5           1.8110     0.0000     1.2310 nd         1 7LR      -0.666100
     15 C9           0.7600     0.0110     2.0970 ca         1 7LR       0.122400
     16 C11         -8.1670    -2.8120     1.6760 ca         1 7LR      -0.138000
     17 C12         -5.9440    -6.1550     2.0520 c          1 7LR       0.454100
     18 O14         -7.7430    -6.5180     4.6960 o          1 7LR      -0.608300
     19 O15         -7.8990    -4.1370     5.3500 o          1 7LR      -0.608300
     20 C16         -6.3680    -1.3410     3.1850 ca         1 7LR      -0.036300
     21 C19         -1.7300     0.0150     3.3250 ca         1 7LR       0.038600
     22 O21         -3.8540    -1.2800     2.3770 o          1 7LR      -0.609100
     23 O23         -5.2140    -5.6180     2.8570 o          1 7LR      -0.361100
     24 N24          2.1590    -0.0000    -1.1280 nv         1 7LR      -0.967800
     25 C25          0.6680     0.0170     3.4900 ca         1 7LR      -0.068000
     26 C27        -10.0660    -5.2710     4.2860 c3         1 7LR      -0.230300
     27 N28         -5.4500    -7.0820     1.2080 nz         1 7LR      -0.683400
     28 C29         -0.5700     0.0190     4.0940 ca         1 7LR      -0.164000
     29 H1          -0.5930     0.0000    -0.8060 hn         1 7LR       0.298700
     30 H2          -8.0070    -6.6660     2.1920 h1         1 7LR       0.098200
     31 H3          -7.6420    -5.3970     1.0140 h1         1 7LR       0.098200
     32 H4          -2.5530     0.0970     1.3470 ha         1 7LR       0.146000
     33 H5          -6.0650    -3.1350     4.3120 ha         1 7LR       0.166000
     34 H6          -5.3590    -0.9310     5.0150 hc         1 7LR       0.083200
     35 H7          -5.7100     0.4980     4.0330 hc         1 7LR       0.083200
     36 H8          -6.8890     0.3040     1.9190 ha         1 7LR       0.162000
     37 H10         -8.8720    -3.3860     1.0870 ha         1 7LR       0.138000
     38 H11         -3.0790     0.4050     4.8710 hn         1 7LR       0.329500
     39 H12          1.7370     0.0020    -2.0360 hn         1 7LR       0.453800
     40 H13          3.1560    -0.0000    -1.0390 hn         1 7LR       0.453800
     41 H14          1.5670     0.0190     4.0940 ha         1 7LR       0.151000
     42 H15        -10.3070    -5.8250     3.3860 h1         1 7LR       0.109033
     43 H16        -10.4540    -4.2630     4.2040 h1         1 7LR       0.109033
     44 H17        -10.5140    -5.7620     5.1420 h1         1 7LR       0.109033
     45 H18         -6.1850    -7.6980     0.9220 hn         1 7LR       0.477467
     46 H19         -4.7350    -7.6070     1.6700 hn         1 7LR       0.477467
     47 H20         -0.6410     0.0240     5.1750 ha         1 7LR       0.133000
     48 N18         -2.9830     0.0180     3.9530 ns         1 7LR      -0.463100
     49 H283        -5.0520    -6.6270     0.4100 hn         1 7LR       0.477467
     50 Cl1         -8.8140    -0.7190     0.0880 cl         1 7LR      -0.076400
@<TRIPOS>BOND
     1    27    17 1
     2    23    17 2
     3    17     5 1
     4     5    13 1
     5    13     3 1
     6    13    12 1
     7    18    12 2
     8    16     3 ar
     9    16     9 ar
    10    50     9 1
    11     3     8 ar
    12     9    11 ar
    13    12    19 2
    14    12    26 1
    15     8    20 ar
    16    11    20 ar
    17    20    10 1
    18    10     6 1
    19    48     6 1
    20    48    21 1
    21     6    22 2
    22    28    21 ar
    23    28    25 ar
    24    21     7 ar
    25    25    15 ar
    26     7     4 ar
    27    15     4 ar
    28    15    14 1
    29     4     1 1
    30    14     2 2
    31     1     2 1
    32     2    24 1
    33     1    29 1
    34     5    30 1
    35     5    31 1
    36     7    32 1
    37     8    33 1
    38    10    34 1
    39    10    35 1
    40    11    36 1
    41    16    37 1
    42    48    38 1
    43    24    39 1
    44    24    40 1
    45    25    41 1
    46    26    42 1
    47    26    43 1
    48    26    44 1
    49    27    45 1
    50    27    46 1
    51    28    47 1
    52    49    27 1
@<TRIPOS>SUBSTRUCTURE
     1 7LR         1 TEMP              0 ****  ****    0 ROOT
