@<TRIPOS>MOLECULE
molecule
   30    32     1     0     0
SMALL
bcc


@<TRIPOS>ATOM
      1 Cl1          0.0000     0.0000     0.0000 cl         1 7LU      -0.086400
      2 C16          1.7370     0.0000     0.0000 ca         1 7LU       0.112400
      3 C15          2.4190     0.0000     1.2020 ca         1 7LU      -0.187000
      4 C18          2.4210    -0.0060    -1.2040 ca         1 7LU      -0.247000
      5 C19          3.8070    -0.0080    -1.2180 ca         1 7LU       0.226100
      6 O20          4.4790    -0.0130    -2.3960 oh         1 7LU      -0.458100
      7 C21          4.5060    -0.0020    -0.0060 ca         1 7LU      -0.259600
      8 C02          5.9800    -0.0020     0.0290 c          1 7LU       0.584900
      9 O01          6.6370    -0.0080    -0.9990 o          1 7LU      -0.520100
     10 C14          3.8070    -0.0050     1.2130 ca         1 7LU       0.197100
     11 O13          4.4890    -0.0040     2.3770 os         1 7LU      -0.210200
     12 C04          5.8310    -0.0100     2.4220 cc         1 7LU       0.202900
     13 C03          6.6000     0.0040     1.2990 cd         1 7LU      -0.330200
     14 C05          6.4970    -0.0030     3.7380 ca         1 7LU      -0.070800
     15 C12          5.7330    -0.0180     4.9090 ca         1 7LU      -0.107000
     16 C10          6.3620    -0.0100     6.1390 ca         1 7LU       0.085100
     17 O11          5.6220    -0.0250     7.2800 oh         1 7LU      -0.509100
     18 C08          7.7540     0.0110     6.2110 ca         1 7LU       0.110100
     19 O09          8.3700     0.0180     7.4210 oh         1 7LU      -0.509100
     20 C07          8.5110     0.0260     5.0480 ca         1 7LU      -0.162000
     21 C06          7.8920     0.0130     3.8170 ca         1 7LU      -0.087000
     22 H151         1.8700     0.0040     2.1360 ha         1 7LU       0.162000
     23 H181         1.8720    -0.0090    -2.1380 ha         1 7LU       0.154000
     24 H201         3.9970    -0.5170    -3.0310 ho         1 7LU       0.426000
     25 H031         7.6800    -0.0010     1.3780 ha         1 7LU       0.171000
     26 H121         4.6520     0.0300     4.8520 ha         1 7LU       0.160000
     27 H111         5.3920     0.8580     7.5180 ho         1 7LU       0.426000
     28 H091         8.7870    -0.8150     7.5660 ho         1 7LU       0.429000
     29 H071         9.5930     0.0400     5.1080 ha         1 7LU       0.150000
     30 H061         8.4860     0.0250     2.9110 ha         1 7LU       0.149000
@<TRIPOS>BOND
     1    19    18 1   
     2    17    16 1   
     3    18    16 ar  
     4    18    20 ar  
     5    16    15 ar  
     6    20    21 ar  
     7    15    14 ar  
     8    21    14 ar  
     9    14    12 1   
    10    12    13 2   
    11    12    11 1   
    12    13     8 1   
    13    11    10 1   
    14     8     9 2   
    15     8     7 1   
    16    10     3 ar  
    17    10     7 ar  
    18     3     2 ar  
    19     7     5 ar  
    20     2     4 ar  
    21     2     1 1   
    22     5     4 ar  
    23     5     6 1   
    24     3    22 1   
    25     4    23 1   
    26     6    24 1   
    27    13    25 1   
    28    15    26 1   
    29    17    27 1   
    30    19    28 1   
    31    20    29 1   
    32    21    30 1   
@<TRIPOS>SUBSTRUCTURE
     1 7LU         1 TEMP              0 ****  ****    0 ROOT
