@<TRIPOS>MOLECULE
7LV
   64    68     1     0     0
SMALL
bcc


@<TRIPOS>ATOM
      1 C1           0.0000     0.0000     0.0000 c3         1 7LV       0.178600
      2 C2           1.9940     1.1390    -0.7660 c3         1 7LV       0.129800
      3 C3           1.6470     0.9610    -2.2460 c3         1 7LV      -0.052700
      4 C4           2.1690     2.1620    -3.0390 c3         1 7LV      -0.020400
      5 C5           1.8220     1.9850    -4.5180 c3         1 7LV      -0.050900
      6 C6           2.4730     0.7040    -5.0450 c3         1 7LV      -0.120300
      7 N1           2.1410     0.5360    -6.4620 n          1 7LV       0.089000
      8 C7           1.9520    -0.4960    -4.2520 c3         1 7LV      -0.050900
      9 C8           2.2990    -0.3190    -2.7730 c3         1 7LV      -0.020400
     10 N2           0.4690     0.0930    -8.0670 n          1 7LV      -0.167800
     11 C24          7.7110     2.5640    -2.2210 ca         1 7LV      -0.078600
     12 C23          6.9960     1.8590    -1.2610 ca         1 7LV       0.141100
     13 C22          5.9770     0.9980    -1.6430 ca         1 7LV      -0.078600
     14 Cl           5.0870     0.1190    -0.4400 cl         1 7LV       0.016100
     15 C21          5.6710     0.8380    -2.9800 ca         1 7LV      -0.069000
     16 C25          7.4070     2.4130    -3.5590 ca         1 7LV      -0.069000
     17 C20          6.3870     1.5430    -3.9460 cp         1 7LV      -0.154500
     18 C17          6.0620     1.3740    -5.3830 cp         1 7LV       0.426800
     19 C16          7.0820     1.5000    -6.3380 ca         1 7LV      -0.196300
     20 C15          6.7960     1.3460    -7.6620 ca         1 7LV      -0.106300
     21 N4           4.8190     1.1070    -5.7370 nb         1 7LV      -0.513000
     22 C18          4.4850     0.9460    -7.0170 ca         1 7LV       0.220300
     23 C14          5.4650     1.0610    -8.0330 ca         1 7LV       0.302300
     24 N3           5.1310     0.9010    -9.3160 nb         1 7LV      -0.607000
     25 C13          3.8950     0.6360    -9.6810 ca         1 7LV       0.478200
     26 C19          3.1530     0.6610    -7.3970 ca         1 7LV      -0.054700
     27 C12          2.8830     0.5090    -8.7460 ca         1 7LV      -0.307600
     28 C11          1.4600     0.2030    -9.1510 c3         1 7LV       0.133300
     29 C10         -0.9350    -0.1970    -8.3690 c3         1 7LV       0.119300
     30 C9           0.8720     0.2600    -6.7930 c          1 7LV       0.615500
     31 O            0.0460     0.1660    -5.9060 o          1 7LV      -0.715500
     32 N            1.4690     0.0000     0.0000 n3         1 7LV      -0.543600
     33 C            1.9960     0.0000     1.3710 c3         1 7LV       0.178600
     34 H1          -0.3610    -0.5360    -0.8690 h1         1 7LV       0.001033
     35 H2          -0.3610     1.0210    -0.0290 h1         1 7LV       0.001033
     36 H3          -0.3610    -0.4850     0.8990 h1         1 7LV       0.001033
     37 H4           1.5510     2.0560    -0.3980 h1         1 7LV       0.016700
     38 H5           3.0710     1.1860    -0.6500 h1         1 7LV       0.016700
     39 H6           0.5730     0.8920    -2.3640 hc         1 7LV       0.041700
     40 H7           3.2440     2.2280    -2.9270 hc         1 7LV       0.018700
     41 H8           1.7050     3.0670    -2.6670 hc         1 7LV       0.018700
     42 H9           2.1940     2.8340    -5.0790 hc         1 7LV       0.034950
     43 H10          0.7470     1.9150    -4.6300 hc         1 7LV       0.034950
     44 H11          3.5470     0.7730    -4.9270 h1         1 7LV       0.146700
     45 H12          7.9750     1.4080     0.2970 ho         1 7LV       0.410000
     46 H13          2.4150    -1.4010    -4.6250 hc         1 7LV       0.034950
     47 H14          0.8760    -0.5610    -4.3640 hc         1 7LV       0.034950
     48 H15          3.3740    -0.2480    -2.6610 hc         1 7LV       0.018700
     49 H16          1.9280    -1.1690    -2.2130 hc         1 7LV       0.018700
     50 H17          4.8780     0.1640    -3.2770 ha         1 7LV       0.136500
     51 H18          7.9650     2.9630    -4.3070 ha         1 7LV       0.136500
     52 H19          8.1070     1.6510    -6.0200 ha         1 7LV       0.123000
     53 H20          7.5720     1.4400    -8.4120 ha         1 7LV       0.126000
     54 H21          3.6660     0.5140   -10.7330 h4         1 7LV      -0.018900
     55 H22          1.4630    -0.7340    -9.6950 h1         1 7LV       0.013700
     56 H23          1.1300     0.9860    -9.8240 h1         1 7LV       0.013700
     57 H24         -1.0620    -0.2870    -9.4410 h1         1 7LV       0.011033
     58 H25         -1.2230    -1.1260    -7.8920 h1         1 7LV       0.011033
     59 H26         -1.5580     0.6080    -7.9980 h1         1 7LV       0.011033
     60 H28          1.8120     0.9640     1.8290 h1         1 7LV       0.001033
     61 H29          1.5040    -0.7740     1.9480 h1         1 7LV       0.001033
     62 H30          3.0620    -0.1910     1.3480 h1         1 7LV       0.001033
     63 O1           7.2950     2.0150     0.0550 oh         1 7LV      -0.485100
     64 Cl1          8.9840     3.6410    -1.7380 cl         1 7LV       0.016100
@<TRIPOS>BOND
     1     1    32 1   
     2     1    34 1   
     3     1    35 1   
     4     1    36 1   
     5     2     3 1   
     6     2    32 1   
     7     2    37 1   
     8     2    38 1   
     9     3     4 1   
    10     3     9 1   
    11     3    39 1   
    12     4     5 1   
    13     4    40 1   
    14     4    41 1   
    15     5     6 1   
    16     5    42 1   
    17     5    43 1   
    18     6     7 1   
    19     6     8 1   
    20     6    44 1   
    21     7    26 1   
    22     7    30 1   
    23     8     9 1   
    24     8    46 1   
    25     8    47 1   
    26     9    48 1   
    27     9    49 1   
    28    10    28 1   
    29    10    29 1   
    30    10    30 1   
    31    11    12 ar  
    32    11    16 ar  
    33    11    64 1   
    34    12    13 ar  
    35    12    63 1   
    36    13    14 1   
    37    13    15 ar  
    38    15    17 ar  
    39    15    50 1   
    40    16    17 ar  
    41    16    51 1   
    42    17    18 1   
    43    18    19 ar  
    44    18    21 ar  
    45    19    20 ar  
    46    19    52 1   
    47    20    23 ar  
    48    20    53 1   
    49    21    22 ar  
    50    22    23 ar  
    51    22    26 ar  
    52    23    24 ar  
    53    24    25 ar  
    54    25    27 ar  
    55    25    54 1   
    56    26    27 ar  
    57    27    28 1   
    58    28    55 1   
    59    28    56 1   
    60    29    57 1   
    61    29    58 1   
    62    29    59 1   
    63    30    31 2   
    64    32    33 1   
    65    33    60 1   
    66    33    61 1   
    67    33    62 1   
    68    45    63 1   
@<TRIPOS>SUBSTRUCTURE
     1 7LV         1 TEMP              0 ****  ****    0 ROOT
