@<TRIPOS>MOLECULE
molecule
   64    68     1     0     0
SMALL
bcc


@<TRIPOS>ATOM
      1 C1           0.0000     0.0000     0.0000 c3         1 7LV       0.151100
      2 C2           1.9940     1.1390    -0.7660 c3         1 7LV       0.153800
      3 C3           1.6470     0.9610    -2.2460 c3         1 7LV      -0.068700
      4 C4           2.1690     2.1620    -3.0390 c3         1 7LV      -0.067900
      5 C5           1.8220     1.9850    -4.5180 c3         1 7LV      -0.099400
      6 C6           2.4730     0.7040    -5.0450 c3         1 7LV       0.051700
      7 N1           2.1410     0.5360    -6.4620 n          1 7LV      -0.337000
      8 C7           1.9520    -0.4960    -4.2520 c3         1 7LV      -0.099400
      9 C8           2.2990    -0.3190    -2.7730 c3         1 7LV      -0.067900
     10 N2           0.4690     0.0930    -8.0670 n          1 7LV      -0.500800
     11 C24          7.7110     2.5640    -2.2210 ca         1 7LV       0.000400
     12 C23          6.9960     1.8590    -1.2610 ca         1 7LV       0.127100
     13 C22          5.9770     0.9980    -1.6430 ca         1 7LV       0.000400
     14 Cl           5.0870     0.1190    -0.4400 cl         1 7LV      -0.071400
     15 C21          5.6710     0.8380    -2.9800 ca         1 7LV      -0.088500
     16 C25          7.4070     2.4130    -3.5590 ca         1 7LV      -0.088500
     17 C20          6.3870     1.5430    -3.9460 cp         1 7LV      -0.143500
     18 C17          6.0620     1.3740    -5.3830 cp         1 7LV       0.476800
     19 C16          7.0820     1.5000    -6.3380 ca         1 7LV      -0.226300
     20 C15          6.7960     1.3460    -7.6620 ca         1 7LV      -0.126300
     21 N4           4.8190     1.1070    -5.7370 nb         1 7LV      -0.659000
     22 C18          4.4850     0.9460    -7.0170 ca         1 7LV       0.268300
     23 C14          5.4650     1.0610    -8.0330 ca         1 7LV       0.338300
     24 N3           5.1310     0.9010    -9.3160 nb         1 7LV      -0.708000
     25 C13          3.8950     0.6360    -9.6810 ca         1 7LV       0.486200
     26 C19          3.1530     0.6610    -7.3970 ca         1 7LV       0.098300
     27 C12          2.8830     0.5090    -8.7460 ca         1 7LV      -0.303600
     28 C11          1.4600     0.2030    -9.1510 c3         1 7LV       0.163300
     29 C10         -0.9350    -0.1970    -8.3690 c3         1 7LV       0.130300
     30 C9           0.8720     0.2600    -6.7930 c          1 7LV       0.820500
     31 O            0.0460     0.1660    -5.9060 o          1 7LV      -0.670500
     32 N            1.4690     0.0000     0.0000 n3         1 7LV      -0.732600
     33 C            1.9960     0.0000     1.3710 c3         1 7LV       0.151100
     34 H1          -0.3610    -0.5360    -0.8690 h1         1 7LV       0.030367
     35 H2          -0.3610     1.0210    -0.0290 h1         1 7LV       0.030367
     36 H3          -0.3610    -0.4850     0.8990 h1         1 7LV       0.030367
     37 H4           1.5510     2.0560    -0.3980 h1         1 7LV       0.038200
     38 H5           3.0710     1.1860    -0.6500 h1         1 7LV       0.038200
     39 H6           0.5730     0.8920    -2.3640 hc         1 7LV       0.060700
     40 H7           3.2440     2.2280    -2.9270 hc         1 7LV       0.043700
     41 H8           1.7050     3.0670    -2.6670 hc         1 7LV       0.043700
     42 H9           2.1940     2.8340    -5.0790 hc         1 7LV       0.058700
     43 H10          0.7470     1.9150    -4.6300 hc         1 7LV       0.058700
     44 H11          3.5470     0.7730    -4.9270 h1         1 7LV       0.156700
     45 H12          7.9750     1.4080     0.2970 ho         1 7LV       0.430000
     46 H13          2.4150    -1.4010    -4.6250 hc         1 7LV       0.058700
     47 H14          0.8760    -0.5610    -4.3640 hc         1 7LV       0.058700
     48 H15          3.3740    -0.2480    -2.6610 hc         1 7LV       0.043700
     49 H16          1.9280    -1.1690    -2.2130 hc         1 7LV       0.043700
     50 H17          4.8780     0.1640    -3.2770 ha         1 7LV       0.165000
     51 H18          7.9650     2.9630    -4.3070 ha         1 7LV       0.165000
     52 H19          8.1070     1.6510    -6.0200 ha         1 7LV       0.148000
     53 H20          7.5720     1.4400    -8.4120 ha         1 7LV       0.162000
     54 H21          3.6660     0.5140   -10.7330 h4         1 7LV       0.029100
     55 H22          1.4630    -0.7340    -9.6950 h1         1 7LV       0.044700
     56 H23          1.1300     0.9860    -9.8240 h1         1 7LV       0.044700
     57 H24         -1.0620    -0.2870    -9.4410 h1         1 7LV       0.045700
     58 H25         -1.2230    -1.1260    -7.8920 h1         1 7LV       0.045700
     59 H26         -1.5580     0.6080    -7.9980 h1         1 7LV       0.045700
     60 H28          1.8120     0.9640     1.8290 h1         1 7LV       0.030367
     61 H29          1.5040    -0.7740     1.9480 h1         1 7LV       0.030367
     62 H30          3.0620    -0.1910     1.3480 h1         1 7LV       0.030367
     63 O1           7.2950     2.0150     0.0550 oh         1 7LV      -0.500100
     64 Cl1          8.9840     3.6410    -1.7380 cl         1 7LV      -0.071400
@<TRIPOS>BOND
     1    25    24 ar  
     2    25    27 ar  
     3    28    27 1   
     4    28    10 1   
     5    29    10 1   
     6    24    23 ar  
     7    27    26 ar  
     8    10    30 1   
     9    23    20 ar  
    10    23    22 ar  
    11    26    22 ar  
    12    26     7 1   
    13    20    19 ar  
    14    30    31 2   
    15    30     7 1   
    16    22    21 ar  
    17     7     6 1   
    18    19    18 ar  
    19    21    18 ar  
    20     5     6 1   
    21     5     4 1   
    22     6     8 1   
    23    18    17 1   
    24     4     3 1   
    25     8     9 1   
    26    17    15 ar  
    27    17    16 ar  
    28    15    13 ar  
    29    16    11 ar  
    30     3     9 1   
    31     3     2 1   
    32    13    14 1   
    33    13    12 ar  
    34    11    12 ar  
    35    11    64 1   
    36     2    32 1   
    37    12    63 1   
    38     1    32 1   
    39    32    33 1   
    40     1    34 1   
    41     1    35 1   
    42     1    36 1   
    43     2    37 1   
    44     2    38 1   
    45     3    39 1   
    46     4    40 1   
    47     4    41 1   
    48     5    42 1   
    49     5    43 1   
    50     6    44 1   
    51    63    45 1   
    52     8    46 1   
    53     8    47 1   
    54     9    48 1   
    55     9    49 1   
    56    15    50 1   
    57    16    51 1   
    58    19    52 1   
    59    20    53 1   
    60    25    54 1   
    61    28    55 1   
    62    28    56 1   
    63    29    57 1   
    64    29    58 1   
    65    29    59 1   
    66    33    60 1   
    67    33    61 1   
    68    33    62 1   
@<TRIPOS>SUBSTRUCTURE
     1 7LV         1 TEMP              0 ****  ****    0 ROOT
