@<TRIPOS>MOLECULE
molecule
   45    47     1     0     0
SMALL
bcc


@<TRIPOS>ATOM
      1 C4           0.0000     0.0000     0.0000 ca         1 7LX      -0.128000
      2 C6          -2.7020    -1.3960     0.9480 c          1 7LX       0.880600
      3 C7           1.3780     0.0100     2.4030 ca         1 7LX       0.108100
      4 C8           1.3830     0.0000     0.0000 ca         1 7LX      -0.191000
      5 C15         -4.3990     2.2970    -0.7810 ca         1 7LX      -0.272000
      6 C17          1.2700     0.0290     4.7780 c3         1 7LX       0.127700
      7 C20          5.6030    -0.0080     0.1300 c3         1 7LX      -0.092100
      8 C21         -5.6710     2.8750    -0.6780 ca         1 7LX       0.036000
      9 C22         -6.4740     2.6030     0.4610 ca         1 7LX      -0.233300
     10 C24         -7.4330     4.2510    -1.4970 ca         1 7LX       0.405200
     11 C26         -6.1890     3.7280    -1.6700 ca         1 7LX      -0.264300
     12 C1          -0.6940     0.0050     1.1950 ca         1 7LX      -0.028300
     13 C2          -2.2000     0.0040     1.1900 c3         1 7LX       0.164800
     14 C3          -0.0070     0.0090     2.3960 ca         1 7LX      -0.163000
     15 N5          -2.6850     0.8880     0.1260 nu         1 7LX      -0.768600
     16 C9          -3.9500     1.4670     0.2240 ca         1 7LX       0.313600
     17 C12          2.0760     0.0000     1.1990 ca         1 7LX       0.092100
     18 O13          2.0540     0.0190     3.5830 os         1 7LX      -0.326900
     19 C14         -4.7510     1.1990     1.3410 ca         1 7LX      -0.163000
     20 O16          3.4360    -0.0000     1.2000 os         1 7LX      -0.326900
     21 C18         -5.9830     1.7580     1.4700 ca         1 7LX      -0.118000
     22 C19          4.0860    -0.0100    -0.0720 c3         1 7LX       0.138400
     23 N23         -8.1630     3.9800    -0.4220 nb         1 7LX      -0.742000
     24 C25         -7.7440     3.1950     0.5430 ca         1 7LX       0.451200
     25 H1          -0.5410    -0.0000    -0.9390 ha         1 7LX       0.135000
     26 H2           1.9250    -0.0060    -0.9380 ha         1 7LX       0.125000
     27 H3          -3.9140     2.5980    -1.7020 ha         1 7LX       0.133000
     28 H4           1.9270     0.0320     5.6400 h1         1 7LX       0.037033
     29 H5           0.6480     0.9150     4.7960 h1         1 7LX       0.037033
     30 H6           0.6430    -0.8540     4.8060 h1         1 7LX       0.037033
     31 H7           6.0920    -0.2490    -0.8060 hc         1 7LX       0.040700
     32 H8           5.8690    -0.7460     0.8770 hc         1 7LX       0.040700
     33 H9           5.9210     0.9730     0.4610 hc         1 7LX       0.040700
     34 H10         -7.8390     4.9080    -2.2570 h4         1 7LX      -0.000900
     35 H11         -5.6100     3.9620    -2.5550 ha         1 7LX       0.126000
     36 H12         -2.5650     0.3570     2.1470 h1         1 7LX       0.058700
     37 H13         -0.5540     0.0150     3.3320 ha         1 7LX       0.146000
     38 H14         -2.0950     1.1040    -0.6530 hn         1 7LX       0.432800
     39 H16         -4.9120     0.8400     2.3500 ha         1 7LX       0.169000
     40 H17         -6.6380     1.5830     2.3150 ha         1 7LX       0.119000
     41 H18          3.7950     0.8700    -0.6330 h1         1 7LX       0.029200
     42 H19          3.7960    -0.8990    -0.6190 h1         1 7LX       0.029200
     43 H20         -8.3780     3.0050     1.4000 h4         1 7LX       0.009100
     44 O10         -3.3920    -1.6320    -0.0150 o          1 7LX      -0.822300
     45 O11         -2.3800    -2.3810     1.8000 o          1 7LX      -0.822300
@<TRIPOS>BOND
     1     6    18 1
     2    44     2 1
     3    18     3 1
     4     2    45 1
     5     2    13 1
     6    14     3 ar
     7    14    12 ar
     8     3    17 ar
     9    15    13 1
    10    15    16 1
    11    13    12 1
    12    12     1 ar
    13    19    16 ar
    14    19    21 ar
    15    16     5 ar
    16    17    20 1
    17    17     4 ar
    18    20    22 1
    19    21     9 ar
    20     1     4 ar
    21     5     8 ar
    22    22     7 1
    23     9     8 ar
    24     9    24 ar
    25     8    11 ar
    26    24    23 ar
    27    11    10 ar
    28    23    10 ar
    29     1    25 1
    30     4    26 1
    31     5    27 1
    32     6    28 1
    33     6    29 1
    34     6    30 1
    35     7    31 1
    36     7    32 1
    37     7    33 1
    38    10    34 1
    39    11    35 1
    40    13    36 1
    41    14    37 1
    42    15    38 1
    43    19    39 1
    44    21    40 1
    45    22    41 1
    46    22    42 1
    47    24    43 1
@<TRIPOS>SUBSTRUCTURE
     1 7LX         1 TEMP              0 ****  ****    0 ROOT
