@<TRIPOS>MOLECULE
7LX
   45    47     1     0     0
SMALL
bcc


@<TRIPOS>ATOM
      1 C4           0.0000     0.0000     0.0000 ca         1 7LX      -0.108000
      2 C6          -2.7020    -1.3960     0.9480 c          1 7LX       0.967600
      3 C7           1.3780     0.0100     2.4030 ca         1 7LX       0.109100
      4 C8           1.3830     0.0000     0.0000 ca         1 7LX      -0.178000
      5 C15         -4.3990     2.2970    -0.7810 ca         1 7LX      -0.271000
      6 C17          1.2700     0.0290     4.7780 c3         1 7LX       0.236700
      7 C20          5.6030    -0.0080     0.1300 c3         1 7LX       0.000900
      8 C21         -5.6710     2.8750    -0.6780 ca         1 7LX       0.046000
      9 C22         -6.4740     2.6030     0.4610 ca         1 7LX      -0.235300
     10 C24         -7.4330     4.2510    -1.4970 ca         1 7LX       0.391200
     11 C26         -6.1890     3.7280    -1.6700 ca         1 7LX      -0.241300
     12 C1          -0.6940     0.0050     1.1950 ca         1 7LX      -0.023300
     13 C2          -2.2000     0.0040     1.1900 c3         1 7LX       0.058800
     14 C3          -0.0070     0.0090     2.3960 ca         1 7LX      -0.148000
     15 N5          -2.6850     0.8880     0.1260 nu         1 7LX      -0.344600
     16 C9          -3.9500     1.4670     0.2240 ca         1 7LX       0.181600
     17 C12          2.0760     0.0000     1.1990 ca         1 7LX       0.091100
     18 O13          2.0540     0.0190     3.5830 os         1 7LX      -0.305900
     19 C14         -4.7510     1.1990     1.3410 ca         1 7LX      -0.146000
     20 O16          3.4360    -0.0000     1.2000 os         1 7LX      -0.300900
     21 C18         -5.9830     1.7580     1.4700 ca         1 7LX      -0.095000
     22 C19          4.0860    -0.0100    -0.0720 c3         1 7LX       0.199400
     23 N23         -8.1630     3.9800    -0.4220 nb         1 7LX      -0.647000
     24 C25         -7.7440     3.1950     0.5430 ca         1 7LX       0.442200
     25 H1          -0.5410    -0.0000    -0.9390 ha         1 7LX       0.113000
     26 H2           1.9250    -0.0060    -0.9380 ha         1 7LX       0.109000
     27 H3          -3.9140     2.5980    -1.7020 ha         1 7LX       0.118000
     28 H4           1.9270     0.0320     5.6400 h1         1 7LX      -0.004967
     29 H5           0.6480     0.9150     4.7960 h1         1 7LX      -0.004967
     30 H6           0.6430    -0.8540     4.8060 h1         1 7LX      -0.004967
     31 H7           6.0920    -0.2490    -0.8060 hc         1 7LX       0.005033
     32 H8           5.8690    -0.7460     0.8770 hc         1 7LX       0.005033
     33 H9           5.9210     0.9730     0.4610 hc         1 7LX       0.005033
     34 H10         -7.8390     4.9080    -2.2570 h4         1 7LX      -0.039900
     35 H11         -5.6100     3.9620    -2.5550 ha         1 7LX       0.105000
     36 H12         -2.5650     0.3570     2.1470 h1         1 7LX       0.040700
     37 H13         -0.5540     0.0150     3.3320 ha         1 7LX       0.129000
     38 H14         -2.0950     1.1040    -0.6530 hn         1 7LX       0.284800
     39 H16         -4.9120     0.8400     2.3500 ha         1 7LX       0.151000
     40 H17         -6.6380     1.5830     2.3150 ha         1 7LX       0.095000
     41 H18          3.7950     0.8700    -0.6330 h1         1 7LX      -0.003300
     42 H19          3.7960    -0.8990    -0.6190 h1         1 7LX      -0.003300
     43 H20         -8.3780     3.0050     1.4000 h4         1 7LX      -0.032900
     44 O10         -3.3920    -1.6320    -0.0150 o          1 7LX      -0.873800
     45 O11         -2.3800    -2.3810     1.8000 o          1 7LX      -0.873800
@<TRIPOS>BOND
     1     1     4 ar  
     2     1    12 ar  
     3     1    25 1   
     4     2    13 1   
     5     2    44 1   
     6     2    45 1   
     7     3    14 ar  
     8     3    17 ar  
     9     3    18 1   
    10     4    17 ar  
    11     4    26 1   
    12     5     8 ar  
    13     5    16 ar  
    14     5    27 1   
    15     6    18 1   
    16     6    28 1   
    17     6    29 1   
    18     6    30 1   
    19     7    22 1   
    20     7    31 1   
    21     7    32 1   
    22     7    33 1   
    23     8     9 ar  
    24     8    11 ar  
    25     9    21 ar  
    26     9    24 ar  
    27    10    11 ar  
    28    10    23 ar  
    29    10    34 1   
    30    11    35 1   
    31    12    13 1   
    32    12    14 ar  
    33    13    15 1   
    34    13    36 1   
    35    14    37 1   
    36    15    16 1   
    37    15    38 1   
    38    16    19 ar  
    39    17    20 1   
    40    19    21 ar  
    41    19    39 1   
    42    20    22 1   
    43    21    40 1   
    44    22    41 1   
    45    22    42 1   
    46    23    24 ar  
    47    24    43 1   
@<TRIPOS>SUBSTRUCTURE
     1 7LX         1 TEMP              0 ****  ****    0 ROOT
