@<TRIPOS>MOLECULE
7LY
   59    63     1     0     0
SMALL
bcc


@<TRIPOS>ATOM
      1 C1           0.0000     0.0000     0.0000 ca         1 7LY      -0.085400
      2 C2           1.3880     0.0000     0.0000 ca         1 7LY      -0.141000
      3 C3           2.0790     0.0000     1.1970 ca         1 7LY      -0.080000
      4 C4           1.3810    -0.0020     2.3920 ca         1 7LY      -0.103300
      5 C5           2.1380    -0.0040     3.7040 c3         1 7LY       0.028900
      6 C6           1.9360     1.3580     4.3770 c3         1 7LY       0.153800
      7 C7          -0.5380     1.3590     4.3830 c3         1 7LY       0.150800
      8 C8          -0.7440    -0.0020     3.7090 c3         1 7LY       0.023900
      9 N           -0.7000     0.0000    -1.2110 ns         1 7LY      -0.045100
     10 C           -1.8830     0.6390    -1.3060 c          1 7LY       0.590700
     11 O           -2.2960     1.2960    -0.3690 o          1 7LY      -0.619100
     12 N1           0.7010     1.3790     5.1420 n7         1 7LY      -0.590200
     13 C9           0.0070    -0.0000     2.3950 ca         1 7LY      -0.068300
     14 N2          -5.6080    -0.3280    -8.1340 na         1 7LY       0.462400
     15 C21         -6.6270     4.7530     1.7700 ca         1 7LY      -0.091000
     16 C10         -0.6940    -0.0060     1.2050 ca         1 7LY      -0.099000
     17 C12         -2.2020    -0.2130    -3.6220 ca         1 7LY      -0.034000
     18 C13         -2.9400    -0.3140    -4.7650 ca         1 7LY      -0.169000
     19 C14         -4.1700     0.3410    -4.8700 ca         1 7LY       0.103000
     20 C15         -4.6510     1.1010    -3.8060 ca         1 7LY      -0.242000
     21 C16         -3.9080     1.2070    -2.6440 ca         1 7LY       0.229100
     22 C17         -5.6330     2.5900    -1.7790 c3         1 7LY       0.250700
     23 C18         -5.9830     3.3530    -0.5260 ca         1 7LY      -0.106300
     24 C11         -2.6760     0.5420    -2.5430 ca         1 7LY      -0.222600
     25 C19         -6.7120     2.7400     0.4760 ca         1 7LY      -0.071500
     26 C20         -7.0290     3.4380     1.6260 ca         1 7LY      -0.105000
     27 C22         -5.9090     5.3700     0.7620 ca         1 7LY      -0.105000
     28 C23         -5.5870     4.6700    -0.3860 ca         1 7LY      -0.071500
     29 C24         -4.9650     0.2260    -6.1170 cc         1 7LY      -0.282300
     30 C25         -4.6190    -0.4810    -7.2320 cd         1 7LY      -0.248300
     31 C26         -6.2140     0.8300    -6.3660 cc         1 7LY       0.415200
     32 N3          -6.5900     0.4960    -7.5720 nd         1 7LY      -0.661800
     33 H1           1.9300    -0.0180    -0.9380 ha         1 7LY       0.102000
     34 H2           3.1620    -0.0000     1.2000 ha         1 7LY       0.104000
     35 H3           3.1930    -0.1640     3.5150 hc         1 7LY       0.025700
     36 H4           1.7530    -0.7880     4.3450 hc         1 7LY       0.025700
     37 H5           1.8950     2.1270     3.6160 h1         1 7LY       0.006200
     38 H6           2.7690     1.5510     5.0420 h1         1 7LY       0.006200
     39 H7          -1.3620     1.5330     5.0640 h1         1 7LY       0.012200
     40 H8          -0.4820     2.1190     3.6130 h1         1 7LY       0.012200
     41 H9          -1.8000    -0.1420     3.5130 hc         1 7LY       0.030700
     42 H10         -0.3370    -0.7770     4.3480 hc         1 7LY       0.030700
     43 H11         -0.3220    -0.4730    -2.0080 hn         1 7LY       0.169500
     44 H12          0.7030     2.1680     5.7570 hn         1 7LY       0.249800
     45 H14         -5.6340    -0.7310    -9.0500 hn         1 7LY       0.148700
     46 H16         -1.7780    -0.0060     1.2100 ha         1 7LY       0.145000
     47 H17         -1.2490    -0.7230    -3.5470 ha         1 7LY       0.099000
     48 H18         -2.5700    -0.9020    -5.5960 ha         1 7LY       0.108000
     49 H19         -5.6050     1.6080    -3.8890 ha         1 7LY       0.131000
     50 H20         -5.5730     3.2770    -2.6150 h1         1 7LY       0.002700
     51 H21         -6.3970     1.8480    -1.9750 h1         1 7LY       0.002700
     52 H22         -7.0270     1.7100     0.3640 ha         1 7LY       0.105500
     53 H23         -7.5950     2.9560     2.4130 ha         1 7LY       0.102500
     54 H24         -5.5960     6.4020     0.8730 ha         1 7LY       0.102500
     55 H25         -5.0250     5.1540    -1.1760 ha         1 7LY       0.105500
     56 H26         -3.7150    -1.0630    -7.3660 h4         1 7LY       0.149000
     57 H27         -6.7640     1.4610    -5.6790 h4         1 7LY       0.007100
     58 O1          -4.3720     1.9420    -1.6030 os         1 7LY      -0.250900
     59 H15         -6.8770     5.3010     2.6700 ha         1 7LY       0.101000
@<TRIPOS>BOND
     1     1     2 ar  
     2     1     9 1   
     3     1    16 ar  
     4     2     3 ar  
     5     2    33 1   
     6     3     4 ar  
     7     3    34 1   
     8     4     5 1   
     9     4    13 ar  
    10     5     6 1   
    11     5    35 1   
    12     5    36 1   
    13     6    12 1   
    14     6    37 1   
    15     6    38 1   
    16     7     8 1   
    17     7    12 1   
    18     7    39 1   
    19     7    40 1   
    20     8    13 1   
    21     8    41 1   
    22     8    42 1   
    23     9    10 1   
    24     9    43 1   
    25    10    11 2   
    26    10    24 1   
    27    12    44 1   
    28    13    16 ar  
    29    14    30 1   
    30    14    32 1   
    31    14    45 1   
    32    15    26 ar  
    33    15    27 ar  
    34    15    59 1   
    35    16    46 1   
    36    17    18 ar  
    37    17    24 ar  
    38    17    47 1   
    39    18    19 ar  
    40    18    48 1   
    41    19    20 ar  
    42    19    29 1   
    43    20    21 ar  
    44    20    49 1   
    45    21    24 ar  
    46    21    58 1   
    47    22    23 1   
    48    22    50 1   
    49    22    51 1   
    50    22    58 1   
    51    23    25 ar  
    52    23    28 ar  
    53    25    26 ar  
    54    25    52 1   
    55    26    53 1   
    56    27    28 ar  
    57    27    54 1   
    58    28    55 1   
    59    29    30 2   
    60    29    31 1   
    61    30    56 1   
    62    31    32 2   
    63    31    57 1   
@<TRIPOS>SUBSTRUCTURE
     1 7LY         1 TEMP              0 ****  ****    0 ROOT
