@<TRIPOS>MOLECULE
molecule
   14    15     1     0     0
SMALL
bcc


@<TRIPOS>ATOM
      1 C1           0.0000     0.0000     0.0000 ca         1 7M0       0.034100
      2 C2           1.3910     0.0000     0.0000 ca         1 7M0      -0.034900
      3 C3           2.0880     0.0000     1.1730 ca         1 7M0      -0.015000
      4 C4          -0.6970     0.0010     1.1880 ca         1 7M0      -0.114000
      5 N5          -0.3860     0.0020     3.7140 na         1 7M0      -0.054100
      6 C6          -0.0040     0.0020     2.3930 ca         1 7M0      -0.064200
      7 C7           1.4020     0.0010     2.3940 ca         1 7M0       0.024400
      8 N8           1.8100     0.0010     3.6790 nc         1 7M0      -0.202400
      9 N9           0.7960     0.0020     4.4710 nd         1 7M0      -0.124400
     10 Br1         -0.9400     0.0080    -1.6420 br         1 7M0      -0.053100
     11 Br2          2.3260    -0.0000    -1.6440 br         1 7M0      -0.057100
     12 H1           3.1710     0.0000     1.1590 ha         1 7M0       0.167000
     13 H2          -1.7800     0.0010     1.1830 ha         1 7M0       0.153000
     14 H3          -1.3220     0.0030     4.0660 hn         1 7M0       0.341700
@<TRIPOS>BOND
     1    10     1 1   
     2     4     1 ar  
     3     4     6 ar  
     4     1     2 ar  
     5     5     6 1   
     6     5     9 1   
     7     6     7 ar  
     8     9     8 2   
     9     2    11 1   
    10     2     3 ar  
    11     7     8 1   
    12     7     3 ar  
    13     3    12 1   
    14     4    13 1   
    15     5    14 1   
@<TRIPOS>SUBSTRUCTURE
     1 7M0         1 TEMP              0 ****  ****    0 ROOT
