@<TRIPOS>MOLECULE
molecule
   48    51     1     0     0
SMALL
bcc


@<TRIPOS>ATOM
      1 O01          0.0000     0.0000     0.0000 oh         1 7M1      -0.522100
      2 C02          1.3590     0.0000     0.0000 ca         1 7M1       0.110100
      3 C03          2.0520     0.0000     1.2020 ca         1 7M1      -0.153000
      4 C04          3.4300    -0.0000     1.2050 ca         1 7M1      -0.099000
      5 C05          2.0520    -0.0070    -1.2040 ca         1 7M1      -0.153000
      6 C06          3.4300    -0.0070    -1.2080 ca         1 7M1      -0.099000
      7 C07          4.1300    -0.0010    -0.0020 cp         1 7M1      -0.059000
      8 C08          5.6110    -0.0010    -0.0020 cp         1 7M1      -0.051000
      9 C09          6.3120     0.9210     0.7700 ca         1 7M1      -0.011000
     10 C10          7.6920     0.9180     0.7670 ca         1 7M1      -0.337500
     11 S11          8.5740     2.0870     1.7470 sy         1 7M1       1.539800
     12 O12          8.7990     1.4510     3.1110 os         1 7M1      -0.452800
     13 C13          9.7650     0.4960     3.1240 ca         1 7M1       0.087100
     14 C14         11.0840     0.8450     3.3830 ca         1 7M1      -0.115500
     15 C15         12.0650    -0.1280     3.3950 ca         1 7M1      -0.117000
     16 C16         11.7330    -1.4480     3.1480 ca         1 7M1      -0.115000
     17 C17         10.4210    -1.7970     2.8890 ca         1 7M1      -0.117000
     18 C18          9.4360    -0.8300     2.8820 ca         1 7M1      -0.115500
     19 O19          9.8560     2.2240     1.1510 o          1 7M1      -0.631300
     20 O20          7.6920     3.1820     1.9550 o          1 7M1      -0.631300
     21 C21          8.3880     0.0000    -0.0020 ca         1 7M1      -0.028000
     22 C22          7.7090    -0.9210    -0.7750 ca         1 7M1      -0.145000
     23 C23          6.3170    -0.9340    -0.7790 cq         1 7M1       0.031000
     24 C24          5.5840    -1.9230    -1.6060 cq         1 7M1      -0.071000
     25 C25          5.9090    -2.0840    -2.9520 ca         1 7M1      -0.095000
     26 C26          5.2260    -3.0030    -3.7190 ca         1 7M1      -0.155000
     27 C27          4.2140    -3.7680    -3.1520 ca         1 7M1       0.113100
     28 O28          3.5380    -4.6680    -3.9120 oh         1 7M1      -0.520100
     29 C29          3.8880    -3.6090    -1.8120 ca         1 7M1      -0.155000
     30 C30          4.5720    -2.6950    -1.0380 ca         1 7M1      -0.095000
     31 H1          -0.3140     0.8890    -0.0010 ho         1 7M1       0.421000
     32 H2           1.5100     0.0000     2.1400 ha         1 7M1       0.144500
     33 H3           3.9700     0.0020     2.1440 ha         1 7M1       0.141000
     34 H4           1.5080    -0.0110    -2.1410 ha         1 7M1       0.144500
     35 H5           3.9690    -0.0100    -2.1470 ha         1 7M1       0.141000
     36 H6           5.7740     1.6620     1.3480 ha         1 7M1       0.160000
     37 H7          11.3430     1.8790     3.5760 ha         1 7M1       0.150000
     38 H8          13.0940     0.1430     3.5980 ha         1 7M1       0.141500
     39 H9          12.5040    -2.2100     3.1550 ha         1 7M1       0.137000
     40 H10         10.1640    -2.8320     2.6980 ha         1 7M1       0.141500
     41 H11          8.4080    -1.1040     2.6790 ha         1 7M1       0.150000
     42 H12          9.4720     0.0070     0.0010 ha         1 7M1       0.154000
     43 H13          8.2590    -1.6370    -1.3730 ha         1 7M1       0.143000
     44 H14          6.6980    -1.4880    -3.3940 ha         1 7M1       0.142500
     45 H15          5.4780    -3.1290    -4.7650 ha         1 7M1       0.145500
     46 H16          3.9740    -5.5030    -3.8720 ho         1 7M1       0.421000
     47 H17          3.1000    -4.2080    -1.3720 ha         1 7M1       0.145500
     48 H18          4.3180    -2.5720     0.0070 ha         1 7M1       0.142500
@<TRIPOS>BOND
     1    28    27 1
     2    27    29 ar
     3    27    26 ar
     4    29    30 ar
     5    26    25 ar
     6    30    24 1
     7    25    24 2
     8    24    23 1
     9     1     2 1
    10     2     3 ar
    11     2     5 ar
    12     3     4 ar
    13     5     6 ar
    14    23    22 1
    15    23     8 2
    16     4     7 ar
    17     6     7 ar
    18     7     8 1
    19    22    21 ar
    20     8     9 ar
    21    21    10 ar
    22     9    10 ar
    23    10    11 1
    24    12    11 1
    25    12    13 1
    26    11    19 2
    27    11    20 2
    28    18    13 ar
    29    18    17 ar
    30    13    14 ar
    31    17    16 ar
    32    14    15 ar
    33    16    15 ar
    34     1    31 1
    35     3    32 1
    36     4    33 1
    37     5    34 1
    38     6    35 1
    39     9    36 1
    40    14    37 1
    41    15    38 1
    42    16    39 1
    43    17    40 1
    44    18    41 1
    45    21    42 1
    46    22    43 1
    47    25    44 1
    48    26    45 1
    49    28    46 1
    50    29    47 1
    51    30    48 1
@<TRIPOS>SUBSTRUCTURE
     1 7M1         1 TEMP              0 ****  ****    0 ROOT
