@<TRIPOS>MOLECULE
molecule
   32    35     1     0     0
SMALL
bcc


@<TRIPOS>ATOM
      1 N18          0.0000     0.0000     0.0000 nb         1 7M2      -0.690000
      2 C19          1.3190     0.0000     0.0000 ca         1 7M2       0.444200
      3 C17         -0.6930    -0.0010     1.1220 ca         1 7M2       0.419200
      4 C16         -0.0550    -0.0010     2.3470 ca         1 7M2      -0.256300
      5 C15          1.3320    -0.0010     2.3870 ca         1 7M2      -0.085000
      6 C14          2.0260     0.0000     1.1880 ca         1 7M2      -0.200600
      7 C02          3.5330    -0.0010     1.1780 c3         1 7M2       0.328100
      8 N01          4.0250    -0.8600     0.0890 nu         1 7M2      -0.730600
      9 C03          4.0430     1.3990     0.9290 cc         1 7M2      -0.161600
     10 C13          4.0930    -0.3680    -1.2200 ca         1 7M2       0.086600
     11 C08          4.3090     0.9960    -1.4460 ca         1 7M2      -0.027200
     12 N07          4.3830     1.8420    -0.3290 na         1 7M2       0.035800
     13 C09          4.4110     1.4820    -2.7350 ca         1 7M2      -0.133000
     14 C06          4.7760     3.1360    -0.2420 cc         1 7M2      -0.134300
     15 C05          4.7100     3.5080     1.0570 cd         1 7M2      -0.207000
     16 C04          4.2470     2.3970     1.7960 cd         1 7M2      -0.170000
     17 C10          4.2800     0.6160    -3.8070 ca         1 7M2      -0.118000
     18 C11          4.0460    -0.7300    -3.5890 ca         1 7M2      -0.129000
     19 C12          3.9550    -1.2240    -2.3020 ca         1 7M2      -0.107000
     20 H1           1.8540     0.0010    -0.9420 h4         1 7M2       0.035100
     21 H2          -1.7750    -0.0010     1.0820 h4         1 7M2       0.021100
     22 H3          -0.6300    -0.0020     3.2650 ha         1 7M2       0.137000
     23 H4           1.8590    -0.0020     3.3330 ha         1 7M2       0.134000
     24 H5           3.9110    -0.3630     2.1270 h1         1 7M2       0.081700
     25 H6           4.9100    -1.2500     0.3460 hn         1 7M2       0.389800
     26 H7           4.5940     2.5360    -2.9060 ha         1 7M2       0.140000
     27 H8           5.0950     3.7610    -1.0670 h4         1 7M2       0.169000
     28 H9           4.8590     4.5100     1.4400 ha         1 7M2       0.153000
     29 H10          4.0820     2.3620     2.8660 ha         1 7M2       0.150000
     30 H11          4.3500     0.9960    -4.8200 ha         1 7M2       0.138000
     31 H12          3.9440    -1.4020    -4.4320 ha         1 7M2       0.138000
     32 H13          3.7720    -2.2800    -2.1380 ha         1 7M2       0.150000
@<TRIPOS>BOND
     1    19    18 ar  
     2    19    10 ar  
     3    18    17 ar  
     4     1     2 ar  
     5     1     3 ar  
     6     2     6 ar  
     7     8    10 1   
     8     8     7 1   
     9     3     4 ar  
    10    10    11 ar  
    11    17    13 ar  
    12     6     7 1   
    13     6     5 ar  
    14     7     9 1   
    15     4     5 ar  
    16    11    13 ar  
    17    11    12 1   
    18     9    12 1   
    19     9    16 2   
    20    12    14 1   
    21    16    15 1   
    22    14    15 2   
    23     2    20 1   
    24     3    21 1   
    25     4    22 1   
    26     5    23 1   
    27     7    24 1   
    28     8    25 1   
    29    13    26 1   
    30    14    27 1   
    31    15    28 1   
    32    16    29 1   
    33    17    30 1   
    34    18    31 1   
    35    19    32 1   
@<TRIPOS>SUBSTRUCTURE
     1 7M2         1 TEMP              0 ****  ****    0 ROOT
