@<TRIPOS>MOLECULE
molecule
   44    46     1     0     0
SMALL
bcc


@<TRIPOS>ATOM
      1 N02          0.0000     0.0000     0.0000 nv         1 7M3      -1.066500
      2 C02          1.3870     0.0000     0.0000 ca         1 7M3       0.693200
      3 N01          2.0300     0.0000     1.1490 nb         1 7M3      -0.719000
      4 C10          3.3670    -0.0000     1.1960 ca         1 7M3       0.436600
      5 C03          2.0710    -0.0060    -1.2230 ca         1 7M3      -0.262300
      6 C04          3.4330    -0.0060    -1.2390 ca         1 7M3      -0.073000
      7 C05          4.1160     0.0010    -0.0050 ca         1 7M3      -0.166300
      8 C06          5.5180     0.0010     0.0510 ca         1 7M3      -0.107000
      9 C07          6.1440     0.0010     1.2610 ca         1 7M3      -0.115000
     10 C08          5.4090     0.0010     2.4450 ca         1 7M3      -0.082300
     11 C09          4.0490     0.0010     2.4260 ca         1 7M3      -0.143300
     12 C11          6.1330     0.0010     3.7670 c3         1 7M3       0.185700
     13 O12          6.3620     1.3480     4.1850 os         1 7M3      -0.322900
     14 C25          7.0090     1.5260     5.3660 ca         1 7M3       0.140100
     15 C24          7.4150     0.4260     6.1090 ca         1 7M3      -0.223000
     16 C23          8.0730     0.6100     7.3090 ca         1 7M3      -0.091000
     17 C22          8.3260     1.8880     7.7720 ca         1 7M3      -0.165000
     18 C26          7.2690     2.8070     5.8300 ca         1 7M3      -0.136000
     19 C21          7.9210     2.9860     7.0340 ca         1 7M3      -0.044300
     20 C27          8.1980     4.3770     7.5420 c3         1 7M3       0.208100
     21 N28          9.5030     4.8310     7.0430 n3         1 7M3      -0.726600
     22 C29          9.7040     6.2590     7.3150 c3         1 7M3       0.151100
     23 C30         10.5930     4.0280     7.6120 c3         1 7M3       0.151100
     24 H021        -0.5000    -0.7860    -0.3660 hn         1 7M3       0.437800
     25 H022        -0.5000     0.7690     0.4000 hn         1 7M3       0.437800
     26 H03          1.5180    -0.0220    -2.1540 ha         1 7M3       0.141000
     27 H09          3.4920     0.0010     3.3560 ha         1 7M3       0.153000
     28 H04          3.9780    -0.0100    -2.1760 ha         1 7M3       0.139000
     29 H06          6.1000     0.0010    -0.8630 ha         1 7M3       0.134000
     30 H07          7.2260     0.0020     1.3030 ha         1 7M3       0.135000
     31 H111         5.5300    -0.5100     4.5080 h1         1 7M3       0.042200
     32 H112         7.0820    -0.5100     3.6580 h1         1 7M3       0.042200
     33 H24          7.2170    -0.5750     5.7470 ha         1 7M3       0.133000
     34 H26          6.9520     3.6670     5.2520 ha         1 7M3       0.149000
     35 H23          8.3910    -0.2480     7.8890 ha         1 7M3       0.129000
     36 H22          8.8400     2.0300     8.7150 ha         1 7M3       0.129000
     37 H271         7.4240     5.0490     7.1920 h1         1 7M3       0.040700
     38 H272         8.2080     4.3710     8.6250 h1         1 7M3       0.040700
     39 H291        10.6460     6.5800     6.8890 h1         1 7M3       0.032367
     40 H292         8.8950     6.8280     6.8720 h1         1 7M3       0.032367
     41 H293         9.7170     6.4240     8.3860 h1         1 7M3       0.032367
     42 H301        10.7040     3.1130     7.0420 h1         1 7M3       0.032367
     43 H302        11.5170     4.5930     7.5720 h1         1 7M3       0.032367
     44 H303        10.3630     3.7850     8.6420 h1         1 7M3       0.032367
@<TRIPOS>BOND
     1     1     2 1   
     2     2     3 ar  
     3     2     5 ar  
     4     3     4 ar  
     5     4     7 ar  
     6     4    11 ar  
     7     5     6 ar  
     8     6     7 ar  
     9     7     8 ar  
    10     8     9 ar  
    11     9    10 ar  
    12    10    11 ar  
    13    10    12 1   
    14    12    13 1   
    15    13    14 1   
    16    14    15 ar  
    17    14    18 ar  
    18    15    16 ar  
    19    16    17 ar  
    20    17    19 ar  
    21    18    19 ar  
    22    19    20 1   
    23    20    21 1   
    24    21    22 1   
    25    21    23 1   
    26     1    24 1   
    27     1    25 1   
    28     5    26 1   
    29    11    27 1   
    30     6    28 1   
    31     8    29 1   
    32     9    30 1   
    33    12    31 1   
    34    12    32 1   
    35    15    33 1   
    36    18    34 1   
    37    16    35 1   
    38    17    36 1   
    39    20    37 1   
    40    20    38 1   
    41    22    39 1   
    42    22    40 1   
    43    22    41 1   
    44    23    42 1   
    45    23    43 1   
    46    23    44 1   
@<TRIPOS>SUBSTRUCTURE
     1 7M3         1 TEMP              0 ****  ****    0 ROOT
