@<TRIPOS>MOLECULE
molecule
   65    69     1     0     0
SMALL
bcc


@<TRIPOS>ATOM
      1 C01          0.0000     0.0000     0.0000 ce         1 7M4      -0.097400
      2 C02          1.5310     0.0000     0.0000 c3         1 7M4       0.202300
      3 C03          1.9380     0.0000     1.5070 c3         1 7M4      -0.271900
      4 C04          1.5120    -1.4230     1.9550 c3         1 7M4      -0.074400
      5 C05         -0.3730    -1.2450     0.3920 cf         1 7M4      -0.078400
      6 C06          0.9280    -2.0160     0.6350 c3         1 7M4       0.165300
      7 C07         -0.8870     1.1220    -0.3480 ca         1 7M4      -0.061800
      8 C08         -1.7480    -1.7510     0.5500 ca         1 7M4      -0.033800
      9 C09         -0.7390     2.3560     0.2950 ca         1 7M4      -0.101500
     10 C10         -1.5620     3.3980    -0.0290 ca         1 7M4      -0.127000
     11 C11         -2.5510     3.2300    -1.0030 ca         1 7M4      -0.015800
     12 C12         -2.7000     1.9980    -1.6450 ca         1 7M4      -0.127000
     13 C13         -1.8740     0.9570    -1.3270 ca         1 7M4      -0.101500
     14 C14         -2.2200    -2.1110     1.8160 ca         1 7M4      -0.093500
     15 C15         -3.5060    -2.5830     1.9600 ca         1 7M4      -0.154000
     16 C16         -4.3330    -2.7010     0.8490 ca         1 7M4       0.105100
     17 C17         -3.8680    -2.3450    -0.4090 ca         1 7M4      -0.154000
     18 C18         -2.5850    -1.8660    -0.5620 ca         1 7M4      -0.093500
     19 O01         -5.6010    -3.1680     0.9960 oh         1 7M4      -0.521100
     20 C19         -3.4400     4.3560    -1.3510 ce         1 7M4      -0.174200
     21 C25          2.6550     1.4570     4.1980 ca         1 7M4       0.105100
     22 C26          3.7350     0.5960     4.0670 ca         1 7M4      -0.119500
     23 C27          5.0070     1.0300     4.3870 ca         1 7M4      -0.090000
     24 C28          5.2050     2.3220     4.8380 ca         1 7M4      -0.011900
     25 C29          4.1300     3.1830     4.9710 ca         1 7M4      -0.090000
     26 C30          2.8560     2.7540     4.6510 ca         1 7M4      -0.119500
     27 Br1          6.9470     2.9130     5.2760 br         1 7M4      -0.085100
     28 O05          1.8030    -1.3950    -0.3650 os         1 7M4      -0.385600
     29 S01          1.0230     1.2700     2.4250 s6         1 7M4       1.457500
     30 O06          1.5360     2.5620     2.1330 o          1 7M4      -0.607800
     31 O07         -0.3720     1.0080     2.3810 o          1 7M4      -0.607800
     32 O04          1.4040     1.0350     3.8800 os         1 7M4      -0.455800
     33 H2           2.0070     0.7480    -0.6220 h1         1 7M4       0.121700
     34 H3           3.0070     0.1350     1.6180 h1         1 7M4       0.111700
     35 H4           0.7520    -1.3740     2.7260 hc         1 7M4       0.061200
     36 H5           2.3690    -1.9960     2.2900 hc         1 7M4       0.061200
     37 H7           0.8560    -3.0960     0.5890 h1         1 7M4       0.106700
     38 H8           0.0270     2.4860     1.0490 ha         1 7M4       0.119000
     39 H9          -1.4480     4.3530     0.4680 ha         1 7M4       0.138000
     40 H10         -3.4650     1.8700    -2.4010 ha         1 7M4       0.138000
     41 H11         -1.9890     0.0020    -1.8250 ha         1 7M4       0.119000
     42 H12         -1.5760    -2.0190     2.6830 ha         1 7M4       0.139500
     43 H13         -3.8740    -2.8620     2.9400 ha         1 7M4       0.140000
     44 H14         -4.5170    -2.4370    -1.2710 ha         1 7M4       0.140000
     45 H15         -2.2230    -1.5890    -1.5450 ha         1 7M4       0.139500
     46 H16         -5.6030    -4.1060     0.9020 ho         1 7M4       0.413000
     47 H17         -3.3260     5.3110    -0.8540 ha         1 7M4       0.131000
     48 H20          3.5800    -0.4170     3.7130 ha         1 7M4       0.156000
     49 H21          5.8500     0.3570     4.2840 ha         1 7M4       0.153500
     50 H22          4.2880     4.1940     5.3240 ha         1 7M4       0.153500
     51 H23          2.0150     3.4280     4.7550 ha         1 7M4       0.156000
     52 C1          -4.3800     4.1980    -2.2750 c2         1 7M4      -0.111200
     53 C2          -5.2870     5.3470    -2.6320 c3         1 7M4      -0.065200
     54 C3          -5.2200     5.6010    -4.1390 c3         1 7M4      -0.059400
     55 C4          -6.1420     6.7680    -4.5000 c3         1 7M4      -0.183400
     56 C5          -6.0760     7.0180    -5.9850 c          1 7M4       0.891600
     57 O1          -5.3650     6.3340    -6.6820 o          1 7M4      -0.855800
     58 O2          -6.8070     8.0020    -6.5340 o          1 7M4      -0.855800
     59 H18         -4.4940     3.2420    -2.7730 ha         1 7M4       0.123000
     60 H19         -6.3050     5.1040    -2.3510 hc         1 7M4       0.041200
     61 H24         -4.9690     6.2360    -2.1010 hc         1 7M4       0.041200
     62 H25         -4.2020     5.8450    -4.4190 hc         1 7M4       0.048700
     63 H26         -5.5380     4.7120    -4.6700 hc         1 7M4       0.048700
     64 H27         -7.1590     6.5250    -4.2200 hc         1 7M4       0.028200
     65 H28         -5.8230     7.6570    -3.9700 hc         1 7M4       0.028200
@<TRIPOS>BOND
     1    27    24 1   
     2    23    24 ar  
     3    23    22 ar  
     4    24    25 ar  
     5    22    21 ar  
     6    25    26 ar  
     7    21    26 ar  
     8    21    32 1   
     9    31    29 2   
    10    32    29 1   
    11    29    30 2   
    12    29     3 1   
    13     3     4 1   
    14     3     2 1   
    15     4     6 1   
    16     2     1 1   
    17     2    28 1   
    18    20    11 1   
    19    11    10 ar  
    20    11    12 ar  
    21    10     9 ar  
    22    12    13 ar  
    23     9     7 ar  
    24    13     7 ar  
    25     7     1 1   
    26     1     5 2   
    27     6    28 1   
    28     6     5 1   
    29     5     8 1   
    30     8    18 ar  
    31     8    14 ar  
    32    18    17 ar  
    33    14    15 ar  
    34    17    16 ar  
    35    15    16 ar  
    36    16    19 1   
    37     2    33 1   
    38     3    34 1   
    39     4    35 1   
    40     4    36 1   
    41     6    37 1   
    42     9    38 1   
    43    10    39 1   
    44    12    40 1   
    45    13    41 1   
    46    14    42 1   
    47    15    43 1   
    48    17    44 1   
    49    18    45 1   
    50    19    46 1   
    51    20    47 1   
    52    22    48 1   
    53    23    49 1   
    54    25    50 1   
    55    26    51 1   
    56    20    52 2   
    57    52    53 1   
    58    53    54 1   
    59    54    55 1   
    60    55    56 1   
    61    56    57 1   
    62    56    58 1   
    63    52    59 1   
    64    53    60 1   
    65    53    61 1   
    66    54    62 1   
    67    54    63 1   
    68    55    64 1   
    69    55    65 1   
@<TRIPOS>SUBSTRUCTURE
     1 7M4         1 TEMP              0 ****  ****    0 ROOT
