@<TRIPOS>MOLECULE
molecule
   30    33     1     0     0
SMALL
bcc


@<TRIPOS>ATOM
      1 C11          0.0000     0.0000     0.0000 ca         1 7M5       0.392600
      2 C12          1.4020     0.0000     0.0000 ca         1 7M5      -0.141300
      3 C14          2.0880     0.0000     1.1920 ca         1 7M5      -0.137000
      4 C16          1.4030    -0.0010     2.3980 ca         1 7M5      -0.105000
      5 C18          0.0240    -0.0010     2.4170 ca         1 7M5      -0.143000
      6 C20         -0.6880    -0.0000     1.2250 ca         1 7M5      -0.076600
      7 C21         -2.6970     0.0120    -2.5120 ca         1 7M5      -0.272800
      8 C22         -3.9510     0.6210    -2.6410 ca         1 7M5      -0.075000
      9 N28         -2.7500    -0.5880    -4.7900 nb         1 7M5      -0.695000
     10 C29         -2.1220    -0.5890    -3.6320 ca         1 7M5       0.462200
     11 C26         -3.9350    -0.0260    -4.9400 ca         1 7M5       0.432200
     12 C24         -4.5690     0.5950    -3.8790 ca         1 7M5      -0.262300
     13 C09         -1.9900     0.0110    -1.2110 cc         1 7M5       0.550800
     14 C06         -2.7550     0.0010     0.0370 cc         1 7M5      -0.203600
     15 C07         -4.1040    -0.0080     0.3160 cd         1 7M5      -0.172000
     16 C02         -4.2350    -0.0150     1.7090 cd         1 7M5      -0.183000
     17 C03         -2.9900    -0.0000     2.2450 cc         1 7M5      -0.153100
     18 N05         -2.0780    -0.0000     1.2410 na         1 7M5       0.057700
     19 N10         -0.6760     0.0070    -1.1760 nd         1 7M5      -0.690000
     20 H1           1.9440     0.0010    -0.9380 ha         1 7M5       0.155000
     21 H2           3.1720     0.0000     1.1880 ha         1 7M5       0.139000
     22 H3           1.9550    -0.0010     3.3300 ha         1 7M5       0.137000
     23 H4          -0.5040    -0.0020     3.3630 ha         1 7M5       0.139000
     24 H5          -4.4260     1.0990    -1.7920 ha         1 7M5       0.151000
     25 H6          -1.1520    -1.0620    -3.5490 h4         1 7M5       0.043100
     26 H7          -4.4160    -0.0480    -5.9100 h4         1 7M5       0.024100
     27 H8          -5.5410     1.0550    -4.0150 ha         1 7M5       0.141000
     28 H9          -4.9110    -0.0170    -0.4060 ha         1 7M5       0.157000
     29 H10         -5.1650    -0.0800     2.2610 ha         1 7M5       0.157000
     30 H11         -2.7600    -0.0010     3.3040 h4         1 7M5       0.171000
@<TRIPOS>BOND
     1     2     3 ar
     2     2     1 ar
     3     9    10 ar
     4     9    11 ar
     5     3     4 ar
     6    10     7 ar
     7    11    12 ar
     8    19     1 1
     9    19    13 2
    10     1     6 ar
    11     7    13 1
    12     7     8 ar
    13    12     8 ar
    14     4     5 ar
    15    13    14 1
    16     6     5 ar
    17     6    18 1
    18    14    18 1
    19    14    15 2
    20    18    17 1
    21    15    16 1
    22    17    16 2
    23     2    20 1
    24     3    21 1
    25     4    22 1
    26     5    23 1
    27     8    24 1
    28    10    25 1
    29    11    26 1
    30    12    27 1
    31    15    28 1
    32    16    29 1
    33    17    30 1
@<TRIPOS>SUBSTRUCTURE
     1 7M5         1 TEMP              0 ****  ****    0 ROOT
