@<TRIPOS>MOLECULE
molecule
   26    27     1     0     0
SMALL
bcc


@<TRIPOS>ATOM
      1 C1           0.0000     0.0000     0.0000 ca         1 7M6      -0.310500
      2 C2           1.3870     0.0000     0.0000 ca         1 7M6       0.184600
      3 N1           2.1650     0.0000     1.1510 nh         1 7M6      -0.645000
      4 C3           1.5900     0.6090     2.3420 c3         1 7M6       0.462000
      5 N2           0.3310    -0.0840     2.6880 n7         1 7M6      -0.940100
      6 S1          -0.8750     0.0510     1.5380 sy         1 7M6       1.410200
      7 C4          -0.7090    -0.0330    -1.1820 ca         1 7M6      -0.006000
      8 C5          -0.0400    -0.0590    -2.3930 ca         1 7M6       0.003400
      9 C6           1.3430    -0.0460    -2.4090 ca         1 7M6      -0.066000
     10 C7           2.0520    -0.0150    -1.2300 ca         1 7M6      -0.134000
     11 Cl1         -0.9320    -0.1060    -3.8820 cl         1 7M6      -0.092400
     12 O1          -1.4160     1.3590     1.6630 o          1 7M6      -0.619300
     13 O2          -1.6540    -1.1350     1.6090 o          1 7M6      -0.619300
     14 C8           2.6730    -1.3470     1.4410 c3         1 7M6       0.138800
     15 C9           3.7180    -1.2690     2.5570 c3         1 7M6       0.158900
     16 F1           4.2020    -2.5510     2.8330 f          1 7M6      -0.241300
     17 H1           1.3850     1.6550     2.1480 h2         1 7M6       0.082700
     18 H2           2.2890     0.5190     3.1650 h2         1 7M6       0.082700
     19 H3           0.2090    -0.5890     3.5430 hn         1 7M6       0.465800
     20 H4          -1.7920    -0.0430    -1.1620 ha         1 7M6       0.156000
     21 H5           1.8710    -0.0660    -3.3550 ha         1 7M6       0.151000
     22 H6           3.1350    -0.0050    -1.2550 ha         1 7M6       0.151000
     23 H7           3.1280    -1.7620     0.5490 h1         1 7M6       0.063700
     24 H8           1.8540    -1.9820     1.7570 h1         1 7M6       0.063700
     25 H9           3.2630    -0.8540     3.4480 h1         1 7M6       0.050700
     26 H10          4.5370    -0.6340     2.2410 h1         1 7M6       0.050700
@<TRIPOS>BOND
     1    16    15 1
     2    15    14 1
     3    14     3 1
     4     3     2 1
     5     3     4 1
     6     5     4 1
     7     5     6 1
     8    10     2 ar
     9    10     9 ar
    10     2     1 ar
    11     9     8 ar
    12    13     6 2
    13     1     6 1
    14     1     7 ar
    15     8     7 ar
    16     8    11 1
    17     6    12 2
    18     4    17 1
    19     4    18 1
    20     5    19 1
    21     7    20 1
    22     9    21 1
    23    10    22 1
    24    14    23 1
    25    14    24 1
    26    15    25 1
    27    15    26 1
@<TRIPOS>SUBSTRUCTURE
     1 7M6         1 TEMP              0 ****  ****    0 ROOT
