@<TRIPOS>MOLECULE
7M6
   26    27     1     0     0
SMALL
bcc


@<TRIPOS>ATOM
      1 C1           0.0000     0.0000     0.0000 ca         1 7M6      -0.150500
      2 C2           1.3870     0.0000     0.0000 ca         1 7M6       0.097600
      3 N1           2.1650     0.0000     1.1510 nh         1 7M6      -0.399000
      4 C3           1.5900     0.6090     2.3420 c3         1 7M6       0.375000
      5 N2           0.3310    -0.0840     2.6880 n7         1 7M6      -0.613100
      6 S1          -0.8750     0.0510     1.5380 sy         1 7M6       1.036200
      7 C4          -0.7090    -0.0330    -1.1820 ca         1 7M6       0.032000
      8 C5          -0.0400    -0.0590    -2.3930 ca         1 7M6      -0.071600
      9 C6           1.3430    -0.0460    -2.4090 ca         1 7M6      -0.041000
     10 C7           2.0520    -0.0150    -1.2300 ca         1 7M6      -0.114000
     11 Cl1         -0.9320    -0.1060    -3.8820 cl         1 7M6      -0.006400
     12 O1          -1.4160     1.3590     1.6630 o          1 7M6      -0.570300
     13 O2          -1.6540    -1.1350     1.6090 o          1 7M6      -0.570300
     14 C8           2.6730    -1.3470     1.4410 c3         1 7M6       0.111800
     15 C9           3.7180    -1.2690     2.5570 c3         1 7M6       0.200900
     16 F1           4.2020    -2.5510     2.8330 f          1 7M6      -0.225300
     17 H1           1.3850     1.6550     2.1480 h2         1 7M6       0.041700
     18 H2           2.2890     0.5190     3.1650 h2         1 7M6       0.041700
     19 H3           0.2090    -0.5890     3.5430 hn         1 7M6       0.361800
     20 H4          -1.7920    -0.0430    -1.1620 ha         1 7M6       0.123000
     21 H5           1.8710    -0.0660    -3.3550 ha         1 7M6       0.115000
     22 H6           3.1350    -0.0050    -1.2550 ha         1 7M6       0.121000
     23 H7           3.1280    -1.7620     0.5490 h1         1 7M6       0.033700
     24 H8           1.8540    -1.9820     1.7570 h1         1 7M6       0.033700
     25 H9           3.2630    -0.8540     3.4480 h1         1 7M6       0.017700
     26 H10          4.5370    -0.6340     2.2410 h1         1 7M6       0.017700
@<TRIPOS>BOND
     1     1     2 ar  
     2     1     6 1   
     3     1     7 ar  
     4     2     3 1   
     5     2    10 ar  
     6     3     4 1   
     7     3    14 1   
     8     4     5 1   
     9     4    17 1   
    10     4    18 1   
    11     5     6 1   
    12     5    19 1   
    13     6    12 2   
    14     6    13 2   
    15     7     8 ar  
    16     7    20 1   
    17     8     9 ar  
    18     8    11 1   
    19     9    10 ar  
    20     9    21 1   
    21    10    22 1   
    22    14    15 1   
    23    14    23 1   
    24    14    24 1   
    25    15    16 1   
    26    15    25 1   
    27    15    26 1   
@<TRIPOS>SUBSTRUCTURE
     1 7M6         1 TEMP              0 ****  ****    0 ROOT
