@<TRIPOS>MOLECULE
molecule
   48    51     1     0     0
SMALL
bcc


@<TRIPOS>ATOM
      1 O01          0.0000     0.0000     0.0000 oh         1 7M7      -0.522100
      2 C02          1.3590     0.0000     0.0000 ca         1 7M7       0.111100
      3 C03          2.0510     0.0000     1.2030 ca         1 7M7      -0.153000
      4 C04          3.4300     0.0000     1.2060 ca         1 7M7      -0.099000
      5 C05          2.0510    -0.0060    -1.2040 ca         1 7M7      -0.153000
      6 C06          3.4310    -0.0060    -1.2070 ca         1 7M7      -0.099000
      7 C07          4.1290    -0.0000    -0.0000 cp         1 7M7      -0.060000
      8 C08          5.6110     0.0000    -0.0010 cp         1 7M7      -0.050000
      9 C09          6.3110     0.9220     0.7720 ca         1 7M7      -0.011000
     10 C10          7.6920     0.9190     0.7690 ca         1 7M7      -0.339500
     11 S11          8.5730     2.0870     1.7500 sy         1 7M7       1.536800
     12 O12          8.7980     1.4520     3.1140 os         1 7M7      -0.453800
     13 C13          9.7650     0.4960     3.1260 ca         1 7M7       0.100100
     14 C14         11.0820     0.8450     3.3870 ca         1 7M7      -0.115500
     15 C15         12.0630    -0.1270     3.4000 ca         1 7M7      -0.092000
     16 C16         11.7320    -1.4480     3.1530 ca         1 7M7      -0.010900
     17 Br1         13.0790    -2.7760     3.1640 br         1 7M7      -0.079100
     18 C18         10.4190    -1.7980     2.8940 ca         1 7M7      -0.092000
     19 C19          9.4340    -0.8290     2.8850 ca         1 7M7      -0.115500
     20 O20          9.8570     2.2240     1.1540 o          1 7M7      -0.628300
     21 O21          7.6910     3.1820     1.9570 o          1 7M7      -0.628300
     22 C22          8.3880     0.0000     0.0010 ca         1 7M7      -0.030000
     23 C23          7.7090    -0.9210    -0.7710 ca         1 7M7      -0.144000
     24 C24          6.3170    -0.9340    -0.7770 cq         1 7M7       0.033000
     25 C25          5.5850    -1.9220    -1.6040 cq         1 7M7      -0.072000
     26 C26          5.9100    -2.0840    -2.9500 ca         1 7M7      -0.094500
     27 C27          5.2260    -3.0030    -3.7170 ca         1 7M7      -0.154500
     28 C28          4.2150    -3.7670    -3.1500 ca         1 7M7       0.114100
     29 O29          3.5390    -4.6690    -3.9110 oh         1 7M7      -0.521100
     30 C30          3.8880    -3.6080    -1.8100 ca         1 7M7      -0.154500
     31 C31          4.5720    -2.6940    -1.0360 ca         1 7M7      -0.094500
     32 H1          -0.3140     0.8890    -0.0020 ho         1 7M7       0.422000
     33 H2           1.5080     0.0000     2.1400 ha         1 7M7       0.144500
     34 H3           3.9700     0.0020     2.1460 ha         1 7M7       0.140500
     35 H4           1.5070    -0.0100    -2.1400 ha         1 7M7       0.144500
     36 H5           3.9710    -0.0080    -2.1460 ha         1 7M7       0.140500
     37 H6           5.7730     1.6660     1.3470 ha         1 7M7       0.161000
     38 H7          11.3420     1.8790     3.5800 ha         1 7M7       0.157000
     39 H8          13.0920     0.1440     3.6030 ha         1 7M7       0.155500
     40 H9          10.1620    -2.8330     2.7030 ha         1 7M7       0.155500
     41 H10          8.4060    -1.1030     2.6820 ha         1 7M7       0.157000
     42 H11          9.4710     0.0070     0.0040 ha         1 7M7       0.154000
     43 H12          8.2600    -1.6370    -1.3690 ha         1 7M7       0.144000
     44 H13          6.6980    -1.4880    -3.3930 ha         1 7M7       0.142500
     45 H14          5.4780    -3.1300    -4.7630 ha         1 7M7       0.145500
     46 H15          3.9750    -5.5040    -3.8700 ho         1 7M7       0.421000
     47 H16          3.1000    -4.2070    -1.3710 ha         1 7M7       0.145500
     48 H17          4.3170    -2.5710     0.0090 ha         1 7M7       0.142500
@<TRIPOS>BOND
     1    29    28 1
     2    28    30 ar
     3    28    27 ar
     4    30    31 ar
     5    27    26 ar
     6    31    25 1
     7    26    25 2
     8    25    24 1
     9     1     2 1
    10     3     2 ar
    11     3     4 ar
    12     2     5 ar
    13     4     7 ar
    14    17    16 1
    15    24    23 1
    16    24     8 2
    17     5     6 ar
    18     7     6 ar
    19     7     8 1
    20    23    22 ar
    21     8     9 ar
    22    16    18 ar
    23    16    15 ar
    24    18    19 ar
    25    22    10 ar
    26     9    10 ar
    27    15    14 ar
    28    19    13 ar
    29    10    11 1
    30    14    13 ar
    31    13    12 1
    32    12    11 1
    33    11    21 2
    34    11    20 2
    35     1    32 1
    36     3    33 1
    37     4    34 1
    38     5    35 1
    39     6    36 1
    40     9    37 1
    41    14    38 1
    42    15    39 1
    43    18    40 1
    44    19    41 1
    45    22    42 1
    46    23    43 1
    47    26    44 1
    48    27    45 1
    49    29    46 1
    50    30    47 1
    51    31    48 1
@<TRIPOS>SUBSTRUCTURE
     1 7M7         1 TEMP              0 ****  ****    0 ROOT
