@<TRIPOS>MOLECULE
molecule
   55    59     1     0     0
SMALL
bcc


@<TRIPOS>ATOM
      1 C1           0.0000     0.0000     0.0000 ca         1 7M8      -0.151000
      2 C2           1.3890     0.0000     0.0000 ca         1 7M8      -0.028000
      3 C3           2.0870     0.0000     1.1990 ca         1 7M8      -0.164600
      4 C4           1.3630     0.0010     2.4140 ca         1 7M8       0.015000
      5 C8          -2.7570    -1.4350     3.5180 c3         1 7M8      -0.079400
      6 C9          -4.2870    -1.4350     3.5330 c3         1 7M8       0.140400
      7 C10          2.0640     0.0030     3.6420 ca         1 7M8      -0.169600
      8 C11          1.3450     0.0030     4.8270 ca         1 7M8      -0.024000
      9 C12         -0.0450     0.0040     4.8010 ca         1 7M8      -0.150000
     10 C13          3.5330     0.0030     3.6150 c          1 7M8       0.720100
     11 C14          5.5950    -0.0000     2.4540 ca         1 7M8       0.038600
     12 C15          6.2880    -1.2040     2.4610 ca         1 7M8      -0.049300
     13 C16          7.6680    -1.2120     2.4740 ca         1 7M8      -0.123000
     14 C17          8.3670    -0.0140     2.4790 ca         1 7M8       0.013600
     15 C18          7.6740     1.1980     2.4700 ca         1 7M8      -0.004400
     16 C19          6.2880     1.2010     2.4530 ca         1 7M8      -0.093000
     17 C20          9.8500     1.6400     2.4900 c          1 7M8       0.803500
     18 C24          3.5550     0.0000     1.2540 c          1 7M8       0.720100
     19 O3           4.1990    -0.0010     0.2220 o          1 7M8      -0.596500
     20 N            4.1930     0.0010     2.4400 n          1 7M8      -0.382600
     21 O2           4.1570     0.0040     4.6580 o          1 7M8      -0.595500
     22 C6          -0.7390     0.0020     3.6240 ca         1 7M8      -0.023300
     23 C7          -2.2460     0.0020     3.6390 c3         1 7M8      -0.045100
     24 O           -4.7650    -2.7770     3.4210 oh         1 7M8      -0.608800
     25 C5          -0.0480     0.0030     2.4000 ca         1 7M8      -0.057000
     26 C           -0.7150     0.0010     1.1630 ca         1 7M8      -0.074000
     27 N1           8.6310     2.2090     2.4780 n          1 7M8      -0.357000
     28 C22          8.3570     3.6480     2.4730 c3         1 7M8       0.116300
     29 O1          10.9060     2.2440     2.4980 o          1 7M8      -0.665500
     30 N2           9.7250     0.2990     2.4900 n          1 7M8      -0.359000
     31 C23          5.5300    -2.5080     2.4570 c3         1 7M8      -0.046800
     32 H1          -0.5290    -0.0010    -0.9460 ha         1 7M8       0.140000
     33 H2           1.9300    -0.0010    -0.9390 ha         1 7M8       0.160000
     34 H3          -2.3880    -2.0210     4.3520 hc         1 7M8       0.061700
     35 H4          -2.4050    -1.8670     2.5900 hc         1 7M8       0.061700
     36 H5          -4.6390    -1.0020     4.4610 h1         1 7M8       0.019200
     37 H6          -4.6560    -0.8500     2.6990 h1         1 7M8       0.019200
     38 H7           1.8670     0.0040     5.7760 ha         1 7M8       0.160000
     39 H8          -0.5910     0.0060     5.7370 ha         1 7M8       0.141000
     40 H9           8.2050    -2.1530     2.4800 ha         1 7M8       0.140000
     41 H10          5.7470     2.1400     2.4470 ha         1 7M8       0.143000
     42 H11         10.7710    -1.2880     1.6170 h1         1 7M8       0.052700
     43 H12         11.7720    -0.1340     2.5100 h1         1 7M8       0.052700
     44 H13         10.7550    -1.2860     3.3860 h1         1 7M8       0.052700
     45 H14         -2.5980     0.4340     4.5670 hc         1 7M8       0.054700
     46 H15         -2.6150     0.5870     2.8050 hc         1 7M8       0.054700
     47 H16         -5.7070    -2.7760     3.4300 ho         1 7M8       0.405000
     48 H17         -1.7980     0.0010     1.1320 ha         1 7M8       0.141000
     49 H18          9.2930     4.1940     2.4860 h1         1 7M8       0.053367
     50 H19          7.8010     3.9070     1.5800 h1         1 7M8       0.053367
     51 H20          7.7750     3.9080     3.3490 h1         1 7M8       0.053367
     52 H21          4.9110    -2.5680     3.3440 hc         1 7M8       0.048367
     53 H22          4.9030    -2.5580     1.5750 hc         1 7M8       0.048367
     54 H23          6.2310    -3.3330     2.4490 hc         1 7M8       0.048367
     55 C21         10.8270    -0.6650     2.5020 c3         1 7M8       0.117300
@<TRIPOS>BOND
     1    29    17 2   
     2    28    27 1   
     3    17    27 1   
     4    17    30 1   
     5    27    15 1   
     6    30    55 1   
     7    30    14 1   
     8    15    14 ar  
     9    15    16 ar  
    10    14    13 ar  
    11    16    11 ar  
    12    19    18 2   
    13    13    12 ar  
    14    11    12 ar  
    15    11    20 1   
    16    18    20 1   
    17    18     3 1   
    18     2     3 ar  
    19     2     1 ar  
    20    12    31 1   
    21    20    10 1   
    22     3     4 ar  
    23     1    26 ar  
    24     4    25 ar  
    25     4     7 ar  
    26    26    25 ar  
    27    10     7 1   
    28    10    21 2   
    29    25    22 ar  
    30     7     8 ar  
    31     8     9 ar  
    32    22     9 ar  
    33    22    23 1   
    34    23     5 1   
    35     5     6 1   
    36     6    24 1   
    37     1    32 1   
    38     2    33 1   
    39     5    34 1   
    40     5    35 1   
    41     6    36 1   
    42     6    37 1   
    43     8    38 1   
    44     9    39 1   
    45    13    40 1   
    46    16    41 1   
    47    55    42 1   
    48    55    43 1   
    49    55    44 1   
    50    23    45 1   
    51    23    46 1   
    52    24    47 1   
    53    26    48 1   
    54    28    49 1   
    55    28    50 1   
    56    28    51 1   
    57    31    52 1   
    58    31    53 1   
    59    31    54 1   
@<TRIPOS>SUBSTRUCTURE
     1 7M8         1 TEMP              0 ****  ****    0 ROOT
