@<TRIPOS>MOLECULE
7M8
   55    59     1     0     0
SMALL
bcc


@<TRIPOS>ATOM
      1 C1           0.0000     0.0000     0.0000 ca         1 7M8      -0.128000
      2 C2           1.3890     0.0000     0.0000 ca         1 7M8       0.010000
      3 C3           2.0870     0.0000     1.1990 ca         1 7M8      -0.180600
      4 C4           1.3630     0.0010     2.4140 ca         1 7M8       0.021000
      5 C8          -2.7570    -1.4350     3.5180 c3         1 7M8      -0.039400
      6 C9          -4.2870    -1.4350     3.5330 c3         1 7M8       0.226400
      7 C10          2.0640     0.0030     3.6420 ca         1 7M8      -0.186600
      8 C11          1.3450     0.0030     4.8270 ca         1 7M8       0.014000
      9 C12         -0.0450     0.0040     4.8010 ca         1 7M8      -0.129000
     10 C13          3.5330     0.0030     3.6150 c          1 7M8       0.639100
     11 C14          5.5950    -0.0000     2.4540 ca         1 7M8      -0.094400
     12 C15          6.2880    -1.2040     2.4610 ca         1 7M8      -0.050300
     13 C16          7.6680    -1.2120     2.4740 ca         1 7M8      -0.083000
     14 C17          8.3670    -0.0140     2.4790 ca         1 7M8      -0.128400
     15 C18          7.6740     1.1980     2.4700 ca         1 7M8      -0.152400
     16 C19          6.2880     1.2010     2.4530 ca         1 7M8      -0.043000
     17 C20          9.8500     1.6400     2.4900 c          1 7M8       0.582500
     18 C24          3.5550     0.0000     1.2540 c          1 7M8       0.638100
     19 O3           4.1990    -0.0010     0.2220 o          1 7M8      -0.639500
     20 N            4.1930     0.0010     2.4400 n          1 7M8       0.027400
     21 O2           4.1570     0.0040     4.6580 o          1 7M8      -0.638500
     22 C6          -0.7390     0.0020     3.6240 ca         1 7M8      -0.025300
     23 C7          -2.2460     0.0020     3.6390 c3         1 7M8       0.019900
     24 O           -4.7650    -2.7770     3.4210 oh         1 7M8      -0.591800
     25 C5          -0.0480     0.0030     2.4000 ca         1 7M8      -0.057000
     26 C           -0.7150     0.0010     1.1630 ca         1 7M8      -0.049000
     27 N1           8.6310     2.2090     2.4780 n          1 7M8       0.050000
     28 C22          8.3570     3.6480     2.4730 c3         1 7M8       0.084300
     29 O1          10.9060     2.2440     2.4980 o          1 7M8      -0.721500
     30 N2           9.7250     0.2990     2.4900 n          1 7M8       0.047000
     31 C23          5.5300    -2.5080     2.4570 c3         1 7M8       0.053200
     32 H1          -0.5290    -0.0010    -0.9460 ha         1 7M8       0.110000
     33 H2           1.9300    -0.0010    -0.9390 ha         1 7M8       0.125000
     34 H3          -2.3880    -2.0210     4.3520 hc         1 7M8       0.029700
     35 H4          -2.4050    -1.8670     2.5900 hc         1 7M8       0.029700
     36 H5          -4.6390    -1.0020     4.4610 h1         1 7M8      -0.016800
     37 H6          -4.6560    -0.8500     2.6990 h1         1 7M8      -0.016800
     38 H7           1.8670     0.0040     5.7760 ha         1 7M8       0.125000
     39 H8          -0.5910     0.0060     5.7370 ha         1 7M8       0.114000
     40 H9           8.2050    -2.1530     2.4800 ha         1 7M8       0.113000
     41 H10          5.7470     2.1400     2.4470 ha         1 7M8       0.111000
     42 H11         10.7710    -1.2880     1.6170 h1         1 7M8       0.020033
     43 H12         11.7720    -0.1340     2.5100 h1         1 7M8       0.020033
     44 H13         10.7550    -1.2860     3.3860 h1         1 7M8       0.020033
     45 H14         -2.5980     0.4340     4.5670 hc         1 7M8       0.024200
     46 H15         -2.6150     0.5870     2.8050 hc         1 7M8       0.024200
     47 H16         -5.7070    -2.7760     3.4300 ho         1 7M8       0.392000
     48 H17         -1.7980     0.0010     1.1320 ha         1 7M8       0.115000
     49 H18          9.2930     4.1940     2.4860 h1         1 7M8       0.019700
     50 H19          7.8010     3.9070     1.5800 h1         1 7M8       0.019700
     51 H20          7.7750     3.9080     3.3490 h1         1 7M8       0.019700
     52 H21          4.9110    -2.5680     3.3440 hc         1 7M8       0.014033
     53 H22          4.9030    -2.5580     1.5750 hc         1 7M8       0.014033
     54 H23          6.2310    -3.3330     2.4490 hc         1 7M8       0.014033
     55 C21         10.8270    -0.6650     2.5020 c3         1 7M8       0.085300
@<TRIPOS>BOND
     1     1     2 ar  
     2     1    26 ar  
     3     1    32 1   
     4     2     3 ar  
     5     2    33 1   
     6     3     4 ar  
     7     3    18 1   
     8     4     7 ar  
     9     4    25 ar  
    10     5     6 1   
    11     5    23 1   
    12     5    34 1   
    13     5    35 1   
    14     6    24 1   
    15     6    36 1   
    16     6    37 1   
    17     7     8 ar  
    18     7    10 1   
    19     8     9 ar  
    20     8    38 1   
    21     9    22 ar  
    22     9    39 1   
    23    10    20 1   
    24    10    21 2   
    25    11    12 ar  
    26    11    16 ar  
    27    11    20 1   
    28    12    13 ar  
    29    12    31 1   
    30    13    14 ar  
    31    13    40 1   
    32    14    15 ar  
    33    14    30 1   
    34    15    16 ar  
    35    15    27 1   
    36    16    41 1   
    37    17    27 1   
    38    17    29 2   
    39    17    30 1   
    40    18    19 2   
    41    18    20 1   
    42    22    23 1   
    43    22    25 ar  
    44    23    45 1   
    45    23    46 1   
    46    24    47 1   
    47    25    26 ar  
    48    26    48 1   
    49    27    28 1   
    50    28    49 1   
    51    28    50 1   
    52    28    51 1   
    53    30    55 1   
    54    31    52 1   
    55    31    53 1   
    56    31    54 1   
    57    42    55 1   
    58    43    55 1   
    59    44    55 1   
@<TRIPOS>SUBSTRUCTURE
     1 7M8         1 TEMP              0 ****  ****    0 ROOT
