@<TRIPOS>MOLECULE
molecule
   38    42     1     0     0
SMALL
bcc


@<TRIPOS>ATOM
      1 N01          0.0000     0.0000     0.0000 na         1 7M9       0.053700
      2 C02          1.3800     0.0000     0.0000 cc         1 7M9      -0.199600
      3 C03          1.7980     0.0000     1.3120 cc         1 7M9      -0.155000
      4 C04          0.6480    -0.0020     2.1090 cc         1 7M9      -0.187000
      5 C05         -0.4300    -0.0060     1.2870 cd         1 7M9      -0.157100
      6 C06         -0.6700    -0.0010    -1.2200 ca         1 7M9      -0.076600
      7 C07         -2.0560    -0.0020    -1.2540 ca         1 7M9      -0.144000
      8 C08         -2.7170    -0.0020    -2.4660 ca         1 7M9      -0.109000
      9 C09         -2.0030    -0.0010    -3.6550 ca         1 7M9      -0.140000
     10 C10         -0.6270    -0.0010    -3.6420 ca         1 7M9      -0.142300
     11 C11          0.0600     0.0010    -2.4210 ca         1 7M9       0.390600
     12 N12          1.4170     0.0020    -2.4110 nd         1 7M9      -0.683000
     13 C13          3.5700     0.0030    -1.3020 ca         1 7M9      -0.170500
     14 C14          5.7030    -1.1910    -1.3460 ca         1 7M9      -0.064000
     15 C15          4.2720     1.2050    -1.3120 ca         1 7M9       0.158100
     16 C16          2.0940     0.0020    -1.2790 cc         1 7M9       0.566800
     17 O17          3.5950     2.3810    -1.3010 oh         1 7M9      -0.492100
     18 C18          5.7350    -3.5830    -1.3580 ca         1 7M9      -0.133000
     19 C19          4.3440    -3.6080    -1.3280 ca         1 7M9      -0.114000
     20 C20          3.6220    -2.4510    -1.3100 ca         1 7M9      -0.116000
     21 C21          6.4140    -2.4020    -1.3580 ca         1 7M9      -0.107000
     22 C22          4.2880    -1.2180    -1.3190 ca         1 7M9       0.017000
     23 C23          6.3750     0.0460    -1.3460 ca         1 7M9      -0.072000
     24 C24          5.6690     1.2090    -1.3330 ca         1 7M9      -0.200000
     25 H1           2.8240     0.0030     1.6610 ha         1 7M9       0.160000
     26 H2           0.6230     0.0250     3.1920 ha         1 7M9       0.154000
     27 H3          -1.4650    -0.0090     1.6060 h4         1 7M9       0.169000
     28 H4          -2.6210    -0.0020    -0.3300 ha         1 7M9       0.138000
     29 H5          -3.8000    -0.0030    -2.4890 ha         1 7M9       0.135000
     30 H6          -2.5320    -0.0020    -4.6000 ha         1 7M9       0.136000
     31 H7          -0.0760     0.0000    -4.5740 ha         1 7M9       0.154000
     32 H8           4.0760     3.0250    -1.7940 ho         1 7M9       0.424000
     33 H9           6.2860    -4.5150    -1.3720 ha         1 7M9       0.129000
     34 H10          3.8270    -4.5600    -1.3290 ha         1 7M9       0.131000
     35 H11          2.5400    -2.4860    -1.2870 ha         1 7M9       0.143000
     36 H12          7.4970    -2.3970    -1.3820 ha         1 7M9       0.132000
     37 H13          7.4580     0.0720    -1.3620 ha         1 7M9       0.136000
     38 H14          6.1990     2.1540    -1.3410 ha         1 7M9       0.134000
@<TRIPOS>BOND
     1     4     3 1   
     2     4     5 2   
     3     3     2 2   
     4    19    18 ar  
     5    19    20 ar  
     6     5     1 1   
     7    18    21 ar  
     8    20    22 ar  
     9    21    14 ar  
    10     2     1 1   
    11     2    16 1   
    12     1     6 1   
    13    22    14 ar  
    14    22    13 ar  
    15    14    23 ar  
    16    16    13 1   
    17    16    12 2   
    18    13    15 ar  
    19     6     7 ar  
    20     6    11 ar  
    21     7     8 ar  
    22    23    24 ar  
    23    15    24 ar  
    24    15    17 1   
    25    12    11 1   
    26    11    10 ar  
    27     8     9 ar  
    28    10     9 ar  
    29     3    25 1   
    30     4    26 1   
    31     5    27 1   
    32     7    28 1   
    33     8    29 1   
    34     9    30 1   
    35    10    31 1   
    36    17    32 1   
    37    18    33 1   
    38    19    34 1   
    39    20    35 1   
    40    21    36 1   
    41    23    37 1   
    42    24    38 1   
@<TRIPOS>SUBSTRUCTURE
     1 7M9         1 TEMP              0 ****  ****    0 ROOT
