@<TRIPOS>MOLECULE
molecule
   58    60     1     0     0
SMALL
bcc


@<TRIPOS>ATOM
      1 C10          0.0000     0.0000     0.0000 ca         1 7MA      -0.067000
      2 C13          1.7590    -3.4350    -2.9400 c3         1 7MA       0.153800
      3 C15         -0.5310    -4.3580    -3.1880 ca         1 7MA      -0.006700
      4 C20         -0.5110    -4.9070    -1.9070 ca         1 7MA      -0.096000
      5 C22         -5.2100    -5.5400    -2.3960 c3         1 7MA       0.137700
      6 C26          0.8540    -5.5450    -5.9740 ca         1 7MA      -0.317500
      7 C28         -0.1000    -7.3570    -7.2150 ca         1 7MA      -0.153000
      8 C31          1.9010    -6.3610    -5.5880 ca         1 7MA       0.021700
      9 C30          1.9470    -7.6760    -6.0140 ca         1 7MA      -0.150000
     10 C29          0.9460    -8.1730    -6.8280 ca         1 7MA      -0.067000
     11 C27         -0.1500    -6.0450    -6.7830 ca         1 7MA      -0.020000
     12 S23          0.7950    -3.8700    -5.4300 sy         1 7MA       1.442200
     13 O24          2.0700    -3.3110    -5.7120 o          1 7MA      -0.629800
     14 O25         -0.4190    -3.3290    -5.9300 o          1 7MA      -0.629800
     15 N14          0.6510    -3.8950    -3.7800 nh         1 7MA      -0.645900
     16 C16         -1.7350    -4.2800    -3.8710 ca         1 7MA       0.416200
     17 N17         -2.8520    -4.7180    -3.3210 nb         1 7MA      -0.741000
     18 C19         -1.7010    -5.3550    -1.3640 ca         1 7MA      -0.248300
     19 C18         -2.8700    -5.2440    -2.1080 ca         1 7MA       0.637600
     20 O21         -4.0430    -5.6810    -1.5830 os         1 7MA      -0.445100
     21 C11          1.5050    -2.0150    -2.5060 c          1 7MA       0.644100
     22 O12          0.4960    -1.4430    -2.8640 o          1 7MA      -0.589100
     23 N03          2.3970    -1.3800    -1.7210 n          1 7MA      -0.487800
     24 C02          3.6150    -2.0700    -1.2900 c3         1 7MA       0.095000
     25 C01          4.7270    -1.8280    -2.3130 c3         1 7MA      -0.124100
     26 C04          2.1490     0.0010    -1.3000 c3         1 7MA       0.161300
     27 C05          1.3860     0.0000     0.0000 ca         1 7MA      -0.242600
     28 C09         -0.6600    -0.0000     1.2200 ca         1 7MA      -0.256300
     29 C08          0.0810    -0.0050     2.3850 ca         1 7MA       0.420200
     30 N07          1.3990    -0.0100     2.3480 nb         1 7MA      -0.694000
     31 C06          2.0600     0.0000     1.2060 ca         1 7MA       0.422200
     32 H1          -0.5540     0.0040    -0.9310 ha         1 7MA       0.162000
     33 H2           1.8390    -4.0710    -2.0670 h1         1 7MA       0.082700
     34 H3           2.6830    -3.4810    -3.5050 h1         1 7MA       0.082700
     35 H4           0.4150    -4.9810    -1.3500 ha         1 7MA       0.138000
     36 H5          -5.0770    -6.0910    -3.3190 h1         1 7MA       0.046367
     37 H6          -5.3690    -4.4920    -2.6200 h1         1 7MA       0.046367
     38 H7          -6.0700    -5.9290    -1.8640 h1         1 7MA       0.046367
     39 H8          -0.8850    -7.7480    -7.8510 ha         1 7MA       0.139000
     40 H9           2.6390    -5.7830    -3.6760 hc         1 7MA       0.063033
     41 H10          3.2570    -4.8190    -5.0250 hc         1 7MA       0.063033
     42 H11          3.8600    -6.4610    -4.7620 hc         1 7MA       0.063033
     43 H12          2.7670    -8.3160    -5.7110 ha         1 7MA       0.137000
     44 H13          0.9830    -9.2020    -7.1640 ha         1 7MA       0.134000
     45 H14         -0.9700    -5.4060    -7.0860 ha         1 7MA       0.157000
     46 H15         -1.7600    -3.8550    -4.8670 h4         1 7MA       0.085100
     47 H16         -1.7230    -5.7880    -0.3710 ha         1 7MA       0.151000
     48 H17          3.9240    -1.6880    -0.3250 h1         1 7MA       0.050200
     49 H18          3.4210    -3.1320    -1.2130 h1         1 7MA       0.050200
     50 H19          4.3090    -1.3660    -3.1990 hc         1 7MA       0.047367
     51 H20          5.1840    -2.7730    -2.5790 hc         1 7MA       0.047367
     52 H21          5.4760    -1.1730    -1.8840 hc         1 7MA       0.047367
     53 H22          1.5690     0.5120    -2.0590 h1         1 7MA       0.069700
     54 H23          3.0950     0.5120    -1.1640 h1         1 7MA       0.069700
     55 H24         -1.7430     0.0020     1.2580 ha         1 7MA       0.142000
     56 H25         -0.4260    -0.0100     3.3420 h4         1 7MA       0.022100
     57 H26          3.1440    -0.0020     1.2140 h4         1 7MA       0.016100
     58 C32          2.9910    -5.8180    -4.7000 c3         1 7MA      -0.099800
@<TRIPOS>BOND
     1     7    10 ar
     2     7    11 ar
     3    10     9 ar
     4    11     6 ar
     5     9     8 ar
     6     6     8 ar
     7     6    12 1
     8    13    12 2
     9     8    58 1
    10    12    15 1
    11    12    14 2
    12     2    15 1
    13     2    21 1
    14     4    18 ar
    15     4     3 ar
    16    15     3 1
    17    18    19 ar
    18     3    16 ar
    19    21    22 2
    20    21    23 1
    21    25    24 1
    22    23    24 1
    23    23    26 1
    24    19    17 ar
    25    19    20 1
    26    16    17 ar
    27    26    27 1
    28    20     5 1
    29    27    31 ar
    30    27     1 ar
    31    31    30 ar
    32     1    28 ar
    33    30    29 ar
    34    28    29 ar
    35     1    32 1
    36     2    33 1
    37     2    34 1
    38     4    35 1
    39     5    36 1
    40     5    37 1
    41     5    38 1
    42     7    39 1
    43    58    40 1
    44    58    41 1
    45    58    42 1
    46     9    43 1
    47    10    44 1
    48    11    45 1
    49    16    46 1
    50    18    47 1
    51    24    48 1
    52    24    49 1
    53    25    50 1
    54    25    51 1
    55    25    52 1
    56    26    53 1
    57    26    54 1
    58    28    55 1
    59    29    56 1
    60    31    57 1
@<TRIPOS>SUBSTRUCTURE
     1 7MA         1 TEMP              0 ****  ****    0 ROOT
