@<TRIPOS>MOLECULE
7MA
   58    60     1     0     0
SMALL
bcc


@<TRIPOS>ATOM
      1 C10          0.0000     0.0000     0.0000 ca         1 7MA      -0.041000
      2 C13          1.7590    -3.4350    -2.9400 c3         1 7MA       0.117800
      3 C15         -0.5310    -4.3580    -3.1880 ca         1 7MA      -0.076700
      4 C20         -0.5110    -4.9070    -1.9070 ca         1 7MA      -0.087000
      5 C22         -5.2100    -5.5400    -2.3960 c3         1 7MA       0.256700
      6 C26          0.8540    -5.5450    -5.9740 ca         1 7MA      -0.163500
      7 C28         -0.1000    -7.3570    -7.2150 ca         1 7MA      -0.136000
      8 C31          1.9010    -6.3610    -5.5880 ca         1 7MA       0.023700
      9 C30          1.9470    -7.6760    -6.0140 ca         1 7MA      -0.133000
     10 C29          0.9460    -8.1730    -6.8280 ca         1 7MA      -0.038000
     11 C27         -0.1500    -6.0450    -6.7830 ca         1 7MA       0.015000
     12 S23          0.7950    -3.8700    -5.4300 sy         1 7MA       1.063200
     13 O24          2.0700    -3.3110    -5.7120 o          1 7MA      -0.582800
     14 O25         -0.4190    -3.3290    -5.9300 o          1 7MA      -0.582800
     15 N14          0.6510    -3.8950    -3.7800 nh         1 7MA      -0.300900
     16 C16         -1.7350    -4.2800    -3.8710 ca         1 7MA       0.370200
     17 N17         -2.8520    -4.7180    -3.3210 nb         1 7MA      -0.631000
     18 C19         -1.7010    -5.3550    -1.3640 ca         1 7MA      -0.225300
     19 C18         -2.8700    -5.2440    -2.1080 ca         1 7MA       0.597600
     20 O21         -4.0430    -5.6810    -1.5830 os         1 7MA      -0.435100
     21 C11          1.5050    -2.0150    -2.5060 c          1 7MA       0.570100
     22 O12          0.4960    -1.4430    -2.8640 o          1 7MA      -0.631100
     23 N03          2.3970    -1.3800    -1.7210 n          1 7MA      -0.150800
     24 C02          3.6150    -2.0700    -1.2900 c3         1 7MA       0.039000
     25 C01          4.7270    -1.8280    -2.3130 c3         1 7MA      -0.026100
     26 C04          2.1490     0.0010    -1.3000 c3         1 7MA       0.122300
     27 C05          1.3860     0.0000     0.0000 ca         1 7MA      -0.250600
     28 C09         -0.6600    -0.0000     1.2200 ca         1 7MA      -0.223300
     29 C08          0.0810    -0.0050     2.3850 ca         1 7MA       0.406200
     30 N07          1.3990    -0.0100     2.3480 nb         1 7MA      -0.588000
     31 C06          2.0600     0.0000     1.2060 ca         1 7MA       0.407200
     32 H1          -0.5540     0.0040    -0.9310 ha         1 7MA       0.134000
     33 H2           1.8390    -4.0710    -2.0670 h1         1 7MA       0.054200
     34 H3           2.6830    -3.4810    -3.5050 h1         1 7MA       0.054200
     35 H4           0.4150    -4.9810    -1.3500 ha         1 7MA       0.110000
     36 H5          -5.0770    -6.0910    -3.3190 h1         1 7MA      -0.000967
     37 H6          -5.3690    -4.4920    -2.6200 h1         1 7MA      -0.000967
     38 H7          -6.0700    -5.9290    -1.8640 h1         1 7MA      -0.000967
     39 H8          -0.8850    -7.7480    -7.8510 ha         1 7MA       0.111000
     40 H9           2.6390    -5.7830    -3.6760 hc         1 7MA       0.034033
     41 H10          3.2570    -4.8190    -5.0250 hc         1 7MA       0.034033
     42 H11          3.8600    -6.4610    -4.7620 hc         1 7MA       0.034033
     43 H12          2.7670    -8.3160    -5.7110 ha         1 7MA       0.112000
     44 H13          0.9830    -9.2020    -7.1640 ha         1 7MA       0.102000
     45 H14         -0.9700    -5.4060    -7.0860 ha         1 7MA       0.130000
     46 H15         -1.7600    -3.8550    -4.8670 h4         1 7MA       0.062100
     47 H16         -1.7230    -5.7880    -0.3710 ha         1 7MA       0.122000
     48 H17          3.9240    -1.6880    -0.3250 h1         1 7MA       0.024700
     49 H18          3.4210    -3.1320    -1.2130 h1         1 7MA       0.024700
     50 H19          4.3090    -1.3660    -3.1990 hc         1 7MA       0.014033
     51 H20          5.1840    -2.7730    -2.5790 hc         1 7MA       0.014033
     52 H21          5.4760    -1.1730    -1.8840 hc         1 7MA       0.014033
     53 H22          1.5690     0.5120    -2.0590 h1         1 7MA       0.038200
     54 H23          3.0950     0.5120    -1.1640 h1         1 7MA       0.038200
     55 H24         -1.7430     0.0020     1.2580 ha         1 7MA       0.116000
     56 H25         -0.4260    -0.0100     3.3420 h4         1 7MA      -0.020900
     57 H26          3.1440    -0.0020     1.2140 h4         1 7MA      -0.022900
     58 C32          2.9910    -5.8180    -4.7000 c3         1 7MA      -0.017800
@<TRIPOS>BOND
     1     1    27 ar  
     2     1    28 ar  
     3     1    32 1   
     4     2    15 1   
     5     2    21 1   
     6     2    33 1   
     7     2    34 1   
     8     3     4 ar  
     9     3    15 1   
    10     3    16 ar  
    11     4    18 ar  
    12     4    35 1   
    13     5    20 1   
    14     5    36 1   
    15     5    37 1   
    16     5    38 1   
    17     6     8 ar  
    18     6    11 ar  
    19     6    12 1   
    20     7    10 ar  
    21     7    11 ar  
    22     7    39 1   
    23     8     9 ar  
    24     8    58 1   
    25     9    10 ar  
    26     9    43 1   
    27    10    44 1   
    28    11    45 1   
    29    12    13 2   
    30    12    14 2   
    31    12    15 1   
    32    16    17 ar  
    33    16    46 1   
    34    17    19 ar  
    35    18    19 ar  
    36    18    47 1   
    37    19    20 1   
    38    21    22 2   
    39    21    23 1   
    40    23    24 1   
    41    23    26 1   
    42    24    25 1   
    43    24    48 1   
    44    24    49 1   
    45    25    50 1   
    46    25    51 1   
    47    25    52 1   
    48    26    27 1   
    49    26    53 1   
    50    26    54 1   
    51    27    31 ar  
    52    28    29 ar  
    53    28    55 1   
    54    29    30 ar  
    55    29    56 1   
    56    30    31 ar  
    57    31    57 1   
    58    40    58 1   
    59    41    58 1   
    60    42    58 1   
@<TRIPOS>SUBSTRUCTURE
     1 7MA         1 TEMP              0 ****  ****    0 ROOT
