@<TRIPOS>MOLECULE
7MC
   69    71     1     0     0
SMALL
bcc


@<TRIPOS>ATOM
      1 C           1.9210    0.8970    0.7740 c         1 7MC      0.546100
      2 N           4.2530    1.4830    0.3410 n         1 7MC     -0.584900
      3 O           1.1520    1.8040    0.4930 o         1 7MC     -0.425100
      4 P          -0.2730   -0.2240   -0.0840 p5        1 7MC      1.502400
      5 N1         -4.3470   -3.0110   -8.7240 nb        1 7MC     -0.775000
      6 C2         -5.0340   -2.5600   -7.6520 ca        1 7MC      0.710900
      7 N3         -4.6500   -1.7100   -6.6600 nb        1 7MC     -0.801000
      8 C4         -3.3680   -1.2740   -6.8220 ca        1 7MC      0.459800
      9 C5         -2.5020   -1.6620   -7.9240 ca        1 7MC     -0.234200
     10 C6         -3.0460   -2.5730   -8.8950 ca        1 7MC      0.781200
     11 N6         -2.2930   -3.0000   -9.9450 nh        1 7MC     -0.933500
     12 N7         -1.2590   -1.0160   -7.8100 nc        1 7MC     -0.511100
     13 C8         -1.3450   -0.2680   -6.7070 cd        1 7MC      0.411700
     14 N8          1.3290   -0.4460    0.4930 n4        1 7MC     -0.686900
     15 N9         -2.5880   -0.4100   -6.0250 na        1 7MC     -0.319000
     16 CA          3.3630    0.9550    1.3280 c3        1 7MC      0.103700
     17 CB          3.3180    1.7380    2.6510 c3        1 7MC     -0.208400
     18 CG          2.3310    1.0830    3.5770 c         1 7MC      0.665100
     19 C1'        -3.1280    0.4320   -4.9930 c3        1 7MC      0.235800
     20 O1P        -0.9480   -1.5110   -0.2240 o         1 7MC     -0.787300
     21 C2'        -3.9430   -0.3580   -3.9170 c3        1 7MC      0.089100
     22 O2'        -5.2610    0.1370   -3.8280 oh        1 7MC     -0.619800
     23 C3'        -3.2460   -0.0560   -2.5760 c3        1 7MC      0.109100
     24 O3'        -4.0830    0.6110   -1.6490 oh        1 7MC     -0.656800
     25 O31        -1.0490    0.6860    0.9740 os        1 7MC     -0.538200
     26 C32        -1.9230    0.0600    1.9030 c3        1 7MC      0.181400
     27 C33        -3.3840    0.2330    1.4940 c3        1 7MC     -0.141400
     28 C34        -3.9990   -1.1150    1.1250 c3        1 7MC      0.094800
     29 N35        -5.3300   -0.9790    0.4680 n4        1 7MC     -0.844600
     30 C36         4.4350    0.7940   -0.8590 c         1 7MC      0.706100
     31 C37         5.4920    1.2680   -1.8080 c3        1 7MC     -0.172100
     32 O38         3.6920   -0.1890   -1.0750 o         1 7MC     -0.669100
     33 C4'        -2.0210    0.8110   -2.9270 c3        1 7MC      0.083100
     34 O4'        -2.0610    1.1260   -4.3170 os        1 7MC     -0.394600
     35 C5'        -0.6850    0.1160   -2.6240 c3        1 7MC      0.144400
     36 O5'        -0.1260    0.6290   -1.4170 os        1 7MC     -0.540200
     37 OD1         2.2790    1.3930    4.8850 oh        1 7MC     -0.512100
     38 OD2         1.4940    0.2410    3.2130 o         1 7MC     -0.594000
     39 HN          2.9580    2.0500    5.1190 ho        1 7MC      0.463000
     40 HN6        -1.3840   -2.6270  -10.0730 hn        1 7MC      0.462300
     41 HN6A       -2.6770   -3.6020  -10.6350 hn        1 7MC      0.462300
     42 HN8         1.9540   -0.9240   -0.1840 hn        1 7MC      0.515800
     43 HA          3.6810   -0.1120    1.5610 h1        1 7MC      0.103700
     44 HB          3.0050    2.8050    2.4810 hc        1 7MC      0.125700
     45 HBA         4.3420    1.7430    3.1160 hc        1 7MC      0.125700
     46 H1'        -3.7680    1.2490   -5.4530 h2        1 7MC      0.110700
     47 H2'        -3.9520   -1.4640   -4.1130 h1        1 7MC      0.103700
     48 HO2'       -5.7180   -0.1200   -4.6450 ho        1 7MC      0.466000
     49 H3'        -2.9570   -1.0130   -2.0590 h1        1 7MC      0.088700
     50 HO3'       -4.5610    1.3110   -2.1220 ho        1 7MC      0.461000
     51 H32        -1.7380    0.6000    2.8780 h1        1 7MC      0.087700
     52 H32A       -1.6450   -1.0250    2.0030 h1        1 7MC      0.087700
     53 H33        -3.4550    0.9570    0.6340 hc        1 7MC      0.098200
     54 H33A       -3.9440    0.6840    2.3570 hc        1 7MC      0.098200
     55 H34        -3.3230   -1.6740    0.4080 hx        1 7MC      0.121200
     56 H34A       -4.1340   -1.7420    2.0530 hx        1 7MC      0.121200
     57 HN35       -5.9590   -0.4180    1.0490 hn        1 7MC      0.470133
     58 HN3A       -5.7430   -1.9060    0.3270 hn        1 7MC      0.470133
     59 H37         5.3290    2.3390   -2.0860 hc        1 7MC      0.100033
     60 H37A        6.5050    1.1630   -1.3410 hc        1 7MC      0.100033
     61 H37B        5.4540    0.6390   -2.7330 hc        1 7MC      0.100033
     62 H4'        -2.0590    1.8050   -2.3930 h1        1 7MC      0.108700
     63 H5'         0.0580    0.3850   -3.4300 h1        1 7MC      0.098200
     64 H5'A       -0.7910   -0.9990   -2.5400 h1        1 7MC      0.098200
     65 H8         -0.5690    0.4010   -6.3150 h5        1 7MC      0.079800
     66 H2          4.7030    2.3530    0.5090 hn        1 7MC      0.354500
     67 H82         1.3660   -0.9970    1.3650 hn        1 7MC      0.515800
     68 H353       -5.2250   -0.5130   -0.4510 hn        1 7MC      0.470133
     69 H21        -6.0770   -2.9410   -7.5750 h5        1 7MC      0.062100
@<TRIPOS>BOND
     1    1    3 2   
     2    1   14 1   
     3    1   16 1   
     4    2   16 1   
     5    2   30 1   
     6    2   66 1   
     7    4   14 1   
     8    4   20 2   
     9    4   25 1   
    10    4   36 1   
    11    5    6 ar  
    12    5   10 ar  
    13    6    7 ar  
    14    6   69 1   
    15    7    8 ar  
    16    8    9 ar  
    17    8   15 1   
    18    9   10 ar  
    19    9   12 1   
    20   10   11 1   
    21   11   40 1   
    22   11   41 1   
    23   12   13 2   
    24   13   15 1   
    25   13   65 1   
    26   14   42 1   
    27   14   67 1   
    28   15   19 1   
    29   16   17 1   
    30   16   43 1   
    31   17   18 1   
    32   17   44 1   
    33   17   45 1   
    34   18   37 1   
    35   18   38 2   
    36   19   21 1   
    37   19   34 1   
    38   19   46 1   
    39   21   22 1   
    40   21   23 1   
    41   21   47 1   
    42   22   48 1   
    43   23   24 1   
    44   23   33 1   
    45   23   49 1   
    46   24   50 1   
    47   25   26 1   
    48   26   27 1   
    49   26   51 1   
    50   26   52 1   
    51   27   28 1   
    52   27   53 1   
    53   27   54 1   
    54   28   29 1   
    55   28   55 1   
    56   28   56 1   
    57   29   57 1   
    58   29   58 1   
    59   29   68 1   
    60   30   31 1   
    61   30   32 2   
    62   31   59 1   
    63   31   60 1   
    64   31   61 1   
    65   33   34 1   
    66   33   35 1   
    67   33   62 1   
    68   35   36 1   
    69   35   63 1   
    70   35   64 1   
    71   37   39 1   
@<TRIPOS>SUBSTRUCTURE
     1 7MC         1 TEMP              0 ****  ****    0 ROOT
