@<TRIPOS>MOLECULE
7MD
   63    65     1     0     0
SMALL
bcc


@<TRIPOS>ATOM
      1 C            0.0000     0.0000     0.0000 c          1 7MD       0.626100
      2 N            1.9970     1.2000    -0.6920 nz         1 7MD       0.072400
      3 O           -0.6060     1.0330    -0.1880 o          1 7MD      -0.647100
      4 P           -2.3140    -1.1510     0.1950 p5         1 7MD       1.140500
      5 N1          -1.4390     4.0580    -9.0800 nb         1 7MD      -0.736000
      6 C2          -2.6470     3.6200    -8.7780 ca         1 7MD       0.707900
      7 N3          -2.8680     2.7800    -7.7890 nb         1 7MD      -0.687000
      8 C4          -1.8640     2.3330    -7.0420 ca         1 7MD       0.285800
      9 C5          -0.5580     2.7700    -7.3220 ca         1 7MD      -0.250200
     10 C6          -0.3730     3.6670    -8.3890 ca         1 7MD       0.595200
     11 N6           0.8900     4.1310    -8.7120 nv         1 7MD      -0.469500
     12 N7           0.2640     2.1720    -6.4270 nc         1 7MD      -0.488100
     13 C8          -0.4380     1.4150    -5.6340 cd         1 7MD       0.227700
     14 N8          -0.6740    -1.1490     0.2020 ns         1 7MD      -0.320900
     15 N9          -1.7560     1.4810    -5.9730 na         1 7MD       0.207000
     16 CA           1.5070     0.0000     0.0000 c3         1 7MD      -0.133500
     17 CB           2.0170     0.0000     1.4430 c3         1 7MD      -0.146400
     18 CG           3.5180    -0.1230     1.4460 c          1 7MD       0.954600
     19 C1'         -2.8570     0.7710    -5.3160 c3         1 7MD       0.124800
     20 O1P         -2.8070    -2.5240     0.4380 o          1 7MD      -0.627300
     21 C2'         -3.1140    -0.5850    -6.0110 c3         1 7MD       0.135100
     22 O2'         -4.2060    -0.4800    -6.9250 oh         1 7MD      -0.544800
     23 C3'         -3.4670    -1.5400    -4.8500 c3         1 7MD       0.121100
     24 O3'         -4.7910    -2.0550    -5.0110 oh         1 7MD      -0.566800
     25 O31         -2.8570    -0.1720     1.3530 os         1 7MD      -0.461200
     26 C32         -2.7360    -0.4720     2.7440 c3         1 7MD       0.329400
     27 C33         -3.3510     0.6630     3.5660 c3         1 7MD      -0.057400
     28 C34         -3.2220     0.3410     5.0560 c3         1 7MD      -0.047200
     29 N35         -3.8140     1.4310     5.8450 nz         1 7MD       0.089400
     30 C4'         -3.3840    -0.6490    -3.5910 c3         1 7MD       0.144100
     31 O4'         -2.4960     0.4290    -3.9600 os         1 7MD      -0.404600
     32 C5'         -2.8060    -1.4390    -2.4160 c3         1 7MD       0.314400
     33 O5'         -2.8450    -0.6350    -1.2350 os         1 7MD      -0.452200
     34 OD1          4.1200    -0.2040     0.4010 o          1 7MD      -0.840300
     35 OD2          4.1880    -0.1450     2.6080 o          1 7MD      -0.840300
     36 HN           1.3720     1.4330    -1.4380 hn         1 7MD       0.234133
     37 HNA          2.9090     1.0220    -1.0640 hn         1 7MD       0.234133
     38 HN6          1.6830     3.8360    -8.1780 hn         1 7MD       0.278300
     39 HN6A         1.0100     4.7640    -9.4780 hn         1 7MD       0.278300
     40 HN8         -0.1730    -2.0040     0.3460 hn         1 7MD       0.246500
     41 HA           1.8680    -0.8840    -0.5110 hx         1 7MD       0.110700
     42 HB           1.5850    -0.8370     1.9780 hc         1 7MD       0.035700
     43 HBA          1.7300     0.9260     1.9270 hc         1 7MD       0.035700
     44 H1'         -3.7580     1.3720    -5.3240 h2         1 7MD       0.060700
     45 H2'         -2.2190    -0.9230    -6.5190 h1         1 7MD       0.059700
     46 HO2'        -4.9770    -0.1930    -6.4630 ho         1 7MD       0.407000
     47 H3'         -2.7450    -2.3450    -4.7910 h1         1 7MD       0.020700
     48 HO3'        -4.7570    -2.9950    -5.0810 ho         1 7MD       0.409000
     49 H32         -3.2560    -1.3980     2.9600 h1         1 7MD      -0.001300
     50 H32A        -1.6890    -0.5780     3.0010 h1         1 7MD      -0.001300
     51 H33         -4.3980     0.7680     3.3090 hc         1 7MD       0.043200
     52 H33A        -2.8310     1.5880     3.3500 hc         1 7MD       0.043200
     53 H34         -3.7420    -0.5840     5.2720 hx         1 7MD       0.086200
     54 H34A        -2.1750     0.2360     5.3130 hx         1 7MD       0.086200
     55 HN35        -3.4990     2.3110     5.4870 hn         1 7MD       0.224800
     56 HN3A        -3.5330     1.3400     6.8010 hn         1 7MD       0.224800
     57 H4'         -4.3640    -0.2590    -3.3430 h1         1 7MD       0.050700
     58 H5'         -3.3920    -2.3370    -2.2610 h1         1 7MD      -0.000800
     59 H5'A        -1.7800    -1.7110    -2.6330 h1         1 7MD      -0.000800
     60 H8          -0.0340     0.8210    -4.8240 h5         1 7MD       0.020800
     61 HN3          2.0350     1.9640    -0.0470 hn         1 7MD       0.234133
     62 H353        -4.8110     1.3860     5.7800 hn         1 7MD       0.224800
     63 H2          -3.4890     3.9650    -9.3670 h5         1 7MD       0.000100
@<TRIPOS>BOND
     1     1     3 2   
     2     1    14 1   
     3     1    16 1   
     4     2    16 1   
     5     2    36 1   
     6     2    37 1   
     7     2    61 1   
     8     4    14 1   
     9     4    20 2   
    10     4    25 1   
    11     4    33 1   
    12     5     6 ar  
    13     5    10 ar  
    14     6     7 ar  
    15     6    63 1   
    16     7     8 ar  
    17     8     9 ar  
    18     8    15 1   
    19     9    10 ar  
    20     9    12 1   
    21    10    11 1   
    22    11    38 1   
    23    11    39 1   
    24    12    13 2   
    25    13    15 1   
    26    13    60 1   
    27    14    40 1   
    28    15    19 1   
    29    16    17 1   
    30    16    41 1   
    31    17    18 1   
    32    17    42 1   
    33    17    43 1   
    34    18    34 1   
    35    18    35 1   
    36    19    21 1   
    37    19    31 1   
    38    19    44 1   
    39    21    22 1   
    40    21    23 1   
    41    21    45 1   
    42    22    46 1   
    43    23    24 1   
    44    23    30 1   
    45    23    47 1   
    46    24    48 1   
    47    25    26 1   
    48    26    27 1   
    49    26    49 1   
    50    26    50 1   
    51    27    28 1   
    52    27    51 1   
    53    27    52 1   
    54    28    29 1   
    55    28    53 1   
    56    28    54 1   
    57    29    55 1   
    58    29    56 1   
    59    29    62 1   
    60    30    31 1   
    61    30    32 1   
    62    30    57 1   
    63    32    33 1   
    64    32    58 1   
    65    32    59 1   
@<TRIPOS>SUBSTRUCTURE
     1 7MD         1 TEMP              0 ****  ****    0 ROOT
