@<TRIPOS>MOLECULE
molecule
   63    65     1     0     0
SMALL
bcc


@<TRIPOS>ATOM
      1 C            0.0000     0.0000     0.0000 c          1 7MD       0.651100
      2 N            1.9970     1.2000    -0.6920 nz         1 7MD      -0.789600
      3 O           -0.6060     1.0330    -0.1880 o          1 7MD      -0.595100
      4 P           -2.3140    -1.1510     0.1950 p5         1 7MD       1.636500
      5 N1          -1.4390     4.0580    -9.0800 nb         1 7MD      -0.828000
      6 C2          -2.6470     3.6200    -8.7780 ca         1 7MD       0.757900
      7 N3          -2.8680     2.7800    -7.7890 nb         1 7MD      -0.797000
      8 C4          -1.8640     2.3330    -7.0420 ca         1 7MD       0.489800
      9 C5          -0.5580     2.7700    -7.3220 ca         1 7MD      -0.218200
     10 C6          -0.3730     3.6670    -8.3890 ca         1 7MD       0.795200
     11 N6           0.8900     4.1310    -8.7120 nv         1 7MD      -0.977500
     12 N7           0.2640     2.1720    -6.4270 nc         1 7MD      -0.579100
     13 C8          -0.4380     1.4150    -5.6340 cd         1 7MD       0.405700
     14 N8          -0.6740    -1.1490     0.2020 ns         1 7MD      -0.701900
     15 N9          -1.7560     1.4810    -5.9730 na         1 7MD      -0.252000
     16 CA           1.5070     0.0000     0.0000 c3         1 7MD       0.051500
     17 CB           2.0170     0.0000     1.4430 c3         1 7MD      -0.218400
     18 CG           3.5180    -0.1230     1.4460 c          1 7MD       0.873600
     19 C1'         -2.8570     0.7710    -5.3160 c3         1 7MD       0.225800
     20 O1P         -2.8070    -2.5240     0.4380 o          1 7MD      -0.814300
     21 C2'         -3.1140    -0.5850    -6.0110 c3         1 7MD       0.103100
     22 O2'         -4.2060    -0.4800    -6.9250 oh         1 7MD      -0.553800
     23 C3'         -3.4670    -1.5400    -4.8500 c3         1 7MD       0.075100
     24 O3'         -4.7910    -2.0550    -5.0110 oh         1 7MD      -0.585800
     25 O31         -2.8570    -0.1720     1.3530 os         1 7MD      -0.579200
     26 C32         -2.7360    -0.4720     2.7440 c3         1 7MD       0.229400
     27 C33         -3.3510     0.6630     3.5660 c3         1 7MD      -0.120400
     28 C34         -3.2220     0.3410     5.0560 c3         1 7MD       0.092800
     29 N35         -3.8140     1.4310     5.8450 nz         1 7MD      -0.808600
     30 C4'         -3.3840    -0.6490    -3.5910 c3         1 7MD       0.119100
     31 O4'         -2.4960     0.4290    -3.9600 os         1 7MD      -0.419600
     32 C5'         -2.8060    -1.4390    -2.4160 c3         1 7MD       0.221400
     33 O5'         -2.8450    -0.6350    -1.2350 os         1 7MD      -0.581200
     34 OD1          4.1200    -0.2040     0.4010 o          1 7MD      -0.794300
     35 OD2          4.1880    -0.1450     2.6080 o          1 7MD      -0.794300
     36 HN           1.3720     1.4330    -1.4380 hn         1 7MD       0.463800
     37 HNA          2.9090     1.0220    -1.0640 hn         1 7MD       0.463800
     38 HN6          1.6830     3.8360    -8.1780 hn         1 7MD       0.454300
     39 HN6A         1.0100     4.7640    -9.4780 hn         1 7MD       0.454300
     40 HN8         -0.1730    -2.0040     0.3460 hn         1 7MD       0.371500
     41 HA           1.8680    -0.8840    -0.5110 hx         1 7MD       0.140700
     42 HB           1.5850    -0.8370     1.9780 hc         1 7MD       0.068200
     43 HBA          1.7300     0.9260     1.9270 hc         1 7MD       0.068200
     44 H1'         -3.7580     1.3720    -5.3240 h2         1 7MD       0.099700
     45 H2'         -2.2190    -0.9230    -6.5190 h1         1 7MD       0.108700
     46 HO2'        -4.9770    -0.1930    -6.4630 ho         1 7MD       0.419000
     47 H3'         -2.7450    -2.3450    -4.7910 h1         1 7MD       0.057700
     48 HO3'        -4.7570    -2.9950    -5.0810 ho         1 7MD       0.425000
     49 H32         -3.2560    -1.3980     2.9600 h1         1 7MD       0.052700
     50 H32A        -1.6890    -0.5780     3.0010 h1         1 7MD       0.052700
     51 H33         -4.3980     0.7680     3.3090 hc         1 7MD       0.082200
     52 H33A        -2.8310     1.5880     3.3500 hc         1 7MD       0.082200
     53 H34         -3.7420    -0.5840     5.2720 hx         1 7MD       0.116700
     54 H34A        -2.1750     0.2360     5.3130 hx         1 7MD       0.116700
     55 HN35        -3.4990     2.3110     5.4870 hn         1 7MD       0.461133
     56 HN3A        -3.5330     1.3400     6.8010 hn         1 7MD       0.461133
     57 H4'         -4.3640    -0.2590    -3.3430 h1         1 7MD       0.092700
     58 H5'         -3.3920    -2.3370    -2.2610 h1         1 7MD       0.052700
     59 H5'A        -1.7800    -1.7110    -2.6330 h1         1 7MD       0.052700
     60 H8          -0.0340     0.8210    -4.8240 h5         1 7MD       0.066800
     61 HN3          2.0350     1.9640    -0.0470 hn         1 7MD       0.463800
     62 H353        -4.8110     1.3860     5.7800 hn         1 7MD       0.461133
     63 H2          -3.4890     3.9650    -9.3670 h5         1 7MD       0.069100
@<TRIPOS>BOND
     1    16     1 1
     2     3     1 2
     3     1    14 1
     4     2    16 1
     5     2    36 1
     6     2    37 1
     7    25     4 1
     8    14     4 1
     9     4    33 1
    10     4    20 2
    11    10     5 ar
    12     5     6 ar
    13     6     7 ar
    14     6    63 1
    15     8     7 ar
    16     9     8 ar
    17    15     8 1
    18    12     9 1
    19    10     9 ar
    20    11    10 1
    21    11    38 1
    22    11    39 1
    23    12    13 2
    24    13    15 1
    25    13    60 1
    26    14    40 1
    27    15    19 1
    28    17    16 1
    29    16    41 1
    30    18    17 1
    31    17    42 1
    32    17    43 1
    33    35    18 1
    34    18    34 1
    35    21    19 1
    36    19    31 1
    37    19    44 1
    38    21    22 1
    39    21    23 1
    40    21    45 1
    41    22    46 1
    42    23    30 1
    43    23    24 1
    44    23    47 1
    45    24    48 1
    46    26    25 1
    47    27    26 1
    48    26    49 1
    49    26    50 1
    50    28    27 1
    51    27    51 1
    52    27    52 1
    53    29    28 1
    54    28    53 1
    55    28    54 1
    56    29    55 1
    57    29    56 1
    58    32    30 1
    59    31    30 1
    60    30    57 1
    61    33    32 1
    62    32    58 1
    63    32    59 1
    64    61     2 1
    65    62    29 1
@<TRIPOS>SUBSTRUCTURE
     1 7MD         1 TEMP              0 ****  ****    0 ROOT
