@<TRIPOS>MOLECULE
7ME
   27    28     1     0     0
SMALL
bcc


@<TRIPOS>ATOM
      1 N1           0.0000     0.0000     0.0000 nb         1 7ME      -0.632000
      2 C2           1.3230     0.0000     0.0000 ca         1 7ME       0.711900
      3 N3           2.0170     0.0000     1.1290 nb         1 7ME      -0.642000
      4 C4           1.3930     0.0030     2.3000 ca         1 7ME       0.531200
      5 C5          -0.7000     0.0180     3.6650 c3         1 7ME       0.050900
      6 C6          -2.1590    -0.4090     3.5140 c3         1 7ME      -0.027400
      7 C7          -2.7960     0.4280     2.3990 c3         1 7ME      -0.055700
      8 C8          -2.1920    -0.0060     1.0640 c3         1 7ME      -0.067700
      9 C13         -4.3080     0.1920     2.3790 c3         1 7ME       0.007900
     10 C4A         -0.0080     0.0060     2.3300 ca         1 7ME      -0.325900
     11 C8A         -0.6890     0.0020     1.1390 ca         1 7ME       0.426600
     12 NA2          1.9990    -0.0010    -1.2080 nv         1 7ME      -0.639500
     13 NA4          2.1190     0.0040     3.4810 nv         1 7ME      -0.652500
     14 H5          -0.6630     1.0190     4.0770 hc         1 7ME       0.023200
     15 H5A         -0.1960    -0.6690     4.3340 hc         1 7ME       0.023200
     16 H6          -2.2060    -1.4590     3.2520 hc         1 7ME       0.020200
     17 H6A         -2.6870    -0.2360     4.4450 hc         1 7ME       0.020200
     18 H7          -2.5880     1.4770     2.5680 hc         1 7ME       0.031700
     19 H8          -2.5320    -1.0070     0.8270 hc         1 7ME       0.033700
     20 H8A         -2.5140     0.6790     0.2880 hc         1 7ME       0.033700
     21 H13         -4.7830     0.8380     3.1080 hc         1 7ME       0.004033
     22 H13A        -4.6960     0.4150     1.3930 hc         1 7ME       0.004033
     23 H13B        -4.5160    -0.8420     2.6240 hc         1 7ME       0.004033
     24 HNA2         2.2540    -0.8670    -1.6380 hn         1 7ME       0.277800
     25 HNAA         2.2470     0.8660    -1.6430 hn         1 7ME       0.277800
     26 HNA4         2.3190     0.8680     3.9440 hn         1 7ME       0.279300
     27 HNAB         2.4690    -0.8560     3.8540 hn         1 7ME       0.279300
@<TRIPOS>BOND
     1     1     2 ar  
     2     1    11 ar  
     3     2     3 ar  
     4     2    12 1   
     5     3     4 ar  
     6     4    10 ar  
     7     4    13 1   
     8     5     6 1   
     9     5    10 1   
    10     5    14 1   
    11     5    15 1   
    12     6     7 1   
    13     6    16 1   
    14     6    17 1   
    15     7     8 1   
    16     7     9 1   
    17     7    18 1   
    18     8    11 1   
    19     8    19 1   
    20     8    20 1   
    21     9    21 1   
    22     9    22 1   
    23     9    23 1   
    24    10    11 ar  
    25    12    24 1   
    26    12    25 1   
    27    13    26 1   
    28    13    27 1   
@<TRIPOS>SUBSTRUCTURE
     1 7ME         1 TEMP              0 ****  ****    0 ROOT
