@<TRIPOS>MOLECULE
molecule
   40    42     1     0     0
SMALL
bcc


@<TRIPOS>ATOM
      1 C10          0.0000     0.0000     0.0000 ca         1 7MF      -0.112000
      2 O2           2.8980    -3.1050     3.4290 oh         1 7MF      -0.599800
      3 C11          1.3830     0.0000     0.0000 ca         1 7MF      -0.122500
      4 C12          2.0750     0.0000     1.1940 ca         1 7MF      -0.120500
      5 C15          2.9350    -3.4000     6.2910 c3         1 7MF      -0.097400
      6 C13          2.3390    -2.0960     6.8300 c3         1 7MF      -0.032100
      7 C14          0.8960    -2.0990     4.3250 c3         1 7MF      -0.060100
      8 O1           0.8810    -4.2550     3.2430 oh         1 7MF      -0.599800
      9 C16          1.6620    -3.4020     4.0820 c3         1 7MF       0.338600
     10 C17          1.9470    -4.1140     5.3880 c3         1 7MF       0.071500
     11 C1           3.4960     0.0000     6.0920 ca         1 7MF      -0.016900
     12 C2           3.7230     1.0050     5.1660 ca         1 7MF      -0.081000
     13 C3           3.0400     1.0110     3.9670 ca         1 7MF      -0.101000
     14 C4           2.1180     0.0040     3.6870 cp         1 7MF       0.008000
     15 C5           1.8980    -1.0030     4.6260 ca         1 7MF      -0.070300
     16 C6           2.5810    -1.0010     5.8110 ca         1 7MF      -0.075300
     17 C7           1.3790     0.0020     2.4000 cp         1 7MF      -0.064000
     18 C8          -0.0140     0.0030     2.3940 ca         1 7MF      -0.120500
     19 C9          -0.6970     0.0080     1.1950 ca         1 7MF      -0.122500
     20 N1           2.4760    -5.4510     5.0850 nz         1 7MF      -0.811600
     21 H8          -0.5400     0.0020    -0.9390 ha         1 7MF       0.143000
     22 H19          2.9980    -3.6630     2.6760 ho         1 7MF       0.437500
     23 H9           1.9240    -0.0040    -0.9390 ha         1 7MF       0.141500
     24 H10          3.1590     0.0000     1.1920 ha         1 7MF       0.135500
     25 H15          3.1640    -4.0460     7.1290 hc         1 7MF       0.078200
     26 H16          3.8190    -3.1600     5.7120 hc         1 7MF       0.078200
     27 H12          2.8400    -1.8350     7.7540 hc         1 7MF       0.080200
     28 H11          1.2710    -2.2250     6.9620 hc         1 7MF       0.080200
     29 H14          0.2280    -2.2230     5.1690 hc         1 7MF       0.087700
     30 H13          0.3290    -1.8400     3.4390 hc         1 7MF       0.087700
     31 H18          0.0100    -4.3320     3.5960 ho         1 7MF       0.437500
     32 H17          1.0140    -4.2240     5.9270 hx         1 7MF       0.104700
     33 H4           4.4400     1.7880     5.3840 ha         1 7MF       0.161000
     34 H5           3.2200     1.7980     3.2450 ha         1 7MF       0.159000
     35 H6          -0.5600     0.0070     3.3300 ha         1 7MF       0.135500
     36 H7          -1.7800     0.0090     1.1900 ha         1 7MF       0.141500
     37 H3           1.8130    -5.9540     4.5290 hn         1 7MF       0.457133
     38 H2           3.3370    -5.3640     4.5820 hn         1 7MF       0.457133
     39 H1           2.6380    -5.9470     5.9400 hn         1 7MF       0.457133
     40 Br1          4.4340    -0.0060     7.7340 br         1 7MF      -0.069100
@<TRIPOS>BOND
     1    40    11 1
     2    20    10 1
     3     5     6 1
     4     5    10 1
     5     6    16 1
     6    10     9 1
     7    11    16 ar
     8    11    12 ar
     9     2     9 1
    10    16    15 ar
    11    12    13 ar
    12     9     8 1
    13     9     7 1
    14    15     7 1
    15    15    14 ar
    16    13    14 ar
    17    14    17 1
    18    17     4 ar
    19    17    18 ar
    20     4     3 ar
    21    18    19 ar
    22     3     1 ar
    23    19     1 ar
    24     1    21 1
    25     2    22 1
    26     3    23 1
    27     4    24 1
    28     5    25 1
    29     5    26 1
    30     6    27 1
    31     6    28 1
    32     7    29 1
    33     7    30 1
    34     8    31 1
    35    10    32 1
    36    12    33 1
    37    13    34 1
    38    18    35 1
    39    19    36 1
    40    20    37 1
    41    20    38 1
    42    20    39 1
@<TRIPOS>SUBSTRUCTURE
     1 7MF         1 TEMP              0 ****  ****    0 ROOT
