@<TRIPOS>MOLECULE
7MH
   19    19     1     0     0
SMALL
bcc


@<TRIPOS>ATOM
      1 C7           0.0000     0.0000     0.0000 c3         1 7MH       0.067100
      2 C5           1.5070     0.0000     0.0000 cc         1 7MH      -0.173600
      3 C4           2.1760     0.0000     1.1760 cd         1 7MH      -0.143000
      4 C3           3.5790    -0.0000     1.1830 cd         1 7MH      -0.035200
      5 C6           4.3350    -0.0010     2.4870 c3         1 7MH       0.056100
      6 C2           4.2520    -0.0010    -0.0040 cc         1 7MH      -0.125200
      7 C1           3.5250    -0.0010    -1.2060 cs         1 7MH       0.185600
      8 S1           4.3520    -0.0030    -2.7040 s          1 7MH      -0.682400
      9 N1           2.1800    -0.0060    -1.1800 n          1 7MH       0.461500
     10 O1           1.4560    -0.0120    -2.3970 oh         1 7MH      -0.466100
     11 H1          -0.3610     0.9170    -0.4490 hc         1 7MH       0.023367
     12 H2          -0.3610    -0.8480    -0.5700 hc         1 7MH       0.023367
     13 H3          -0.3610    -0.0690     1.0190 hc         1 7MH       0.023367
     14 H4           1.6300     0.0560     2.1100 ha         1 7MH       0.132000
     15 H5           5.3980    -0.0670     2.2880 hc         1 7MH       0.017367
     16 H6           4.1250     0.9150     3.0260 hc         1 7MH       0.017367
     17 H7           4.0250    -0.8510     3.0830 hc         1 7MH       0.017367
     18 H8           5.3350    -0.0010    -0.0200 ha         1 7MH       0.155000
     19 H9           1.7070     0.7340    -2.9160 ho         1 7MH       0.447000
@<TRIPOS>BOND
     1     1     2 1   
     2     1    11 1   
     3     1    12 1   
     4     1    13 1   
     5     2     3 2   
     6     2     9 1   
     7     3     4 1   
     8     3    14 1   
     9     4     5 1   
    10     4     6 2   
    11     5    15 1   
    12     5    16 1   
    13     5    17 1   
    14     6     7 1   
    15     6    18 1   
    16     7     8 2   
    17     7     9 1   
    18     9    10 1   
    19    10    19 1   
@<TRIPOS>SUBSTRUCTURE
     1 7MH         1 TEMP              0 ****  ****    0 ROOT
