@<TRIPOS>MOLECULE
molecule
   19    19     1     0     0
SMALL
bcc


@<TRIPOS>ATOM
      1 C7           0.0000     0.0000     0.0000 c3         1 7MH      -0.055900
      2 C5           1.5070     0.0000     0.0000 cc         1 7MH       0.053400
      3 C4           2.1760     0.0000     1.1760 cd         1 7MH      -0.210000
      4 C3           3.5790    -0.0000     1.1830 cd         1 7MH      -0.009200
      5 C6           4.3350    -0.0010     2.4870 c3         1 7MH      -0.058900
      6 C2           4.2520    -0.0010    -0.0040 cc         1 7MH      -0.187200
      7 C1           3.5250    -0.0010    -1.2060 cs         1 7MH       0.412600
      8 S1           4.3520    -0.0030    -2.7040 s          1 7MH      -0.638400
      9 N1           2.1800    -0.0060    -1.1800 n          1 7MH      -0.093500
     10 O1           1.4560    -0.0120    -2.3970 oh         1 7MH      -0.355100
     11 H1          -0.3610     0.9170    -0.4490 hc         1 7MH       0.064367
     12 H2          -0.3610    -0.8480    -0.5700 hc         1 7MH       0.064367
     13 H3          -0.3610    -0.0690     1.0190 hc         1 7MH       0.064367
     14 H4           1.6300     0.0560     2.1100 ha         1 7MH       0.159000
     15 H5           5.3980    -0.0670     2.2880 hc         1 7MH       0.055700
     16 H6           4.1250     0.9150     3.0260 hc         1 7MH       0.055700
     17 H7           4.0250    -0.8510     3.0830 hc         1 7MH       0.055700
     18 H8           5.3350    -0.0010    -0.0200 ha         1 7MH       0.182000
     19 H9           1.7070     0.7340    -2.9160 ho         1 7MH       0.441000
@<TRIPOS>BOND
     1     1     2 1   
     2     2     3 2   
     3     2     9 1   
     4     3     4 1   
     5    10     9 1   
     6     9     7 1   
     7     4     5 1   
     8     4     6 2   
     9     7     6 1   
    10     7     8 2   
    11     1    11 1   
    12     1    12 1   
    13     1    13 1   
    14     3    14 1   
    15     5    15 1   
    16     5    16 1   
    17     5    17 1   
    18     6    18 1   
    19    10    19 1   
@<TRIPOS>SUBSTRUCTURE
     1 7MH         1 TEMP              0 ****  ****    0 ROOT
