@<TRIPOS>MOLECULE
molecule
   47    50     1     0     0
SMALL
bcc


@<TRIPOS>ATOM
      1 C23          0.0000     0.0000     0.0000 ca         1 7MJ      -0.126000
      2 C22          1.3830     0.0000     0.0000 ca         1 7MJ      -0.130500
      3 C24         -0.6910     0.0050     1.1970 ca         1 7MJ      -0.130500
      4 C5           7.6220   -10.0680     3.8580 ca         1 7MJ      -0.115000
      5 C6           7.7890    -9.8930     2.4970 ca         1 7MJ      -0.129000
      6 C21          2.0740     0.0000     1.1970 ca         1 7MJ      -0.113500
      7 C25          0.0000     0.0060     2.3940 ca         1 7MJ      -0.113500
      8 C4           7.6620    -8.9780     4.7080 ca         1 7MJ      -0.132000
      9 C7           7.9990    -8.6290     1.9760 ca         1 7MJ      -0.122000
     10 C20          1.3830    -0.0010     2.3950 ca         1 7MJ      -0.090300
     11 C3           7.8670    -7.7090     4.1940 ca         1 7MJ       0.027600
     12 C8           8.0430    -7.5330     2.8210 ca         1 7MJ       0.079100
     13 C15          3.2800    -3.3400     4.4010 cc         1 7MJ       0.340000
     14 C18          2.3800    -1.4220     4.1390 cd         1 7MJ       0.549300
     15 C27          7.1890    -5.4970     4.7350 c          1 7MJ       0.697500
     16 C10          7.0980    -5.4320     2.2420 c3         1 7MJ       0.142400
     17 C11          6.2730    -5.5190     3.5400 c3         1 7MJ       0.007700
     18 C19          2.1360    -0.0010     3.7000 c3         1 7MJ      -0.031400
     19 N16          2.1090    -3.3000     5.0740 na         1 7MJ      -0.059400
     20 N17          1.5870    -2.1340     4.9000 nc         1 7MJ      -0.540800
     21 N26          3.4400    -2.1610     3.8260 nd         1 7MJ      -0.708000
     22 N2           7.9180    -6.5940     5.0400 n          1 7MJ      -0.384000
     23 N12          5.3510    -4.3830     3.6130 ns         1 7MJ      -0.537900
     24 O9           8.2370    -6.2850     2.3210 os         1 7MJ      -0.329900
     25 H1          -0.5420    -0.0000    -0.9380 ha         1 7MJ       0.128000
     26 H2           1.9250    -0.0010    -0.9380 ha         1 7MJ       0.129500
     27 H3          -1.7740     0.0080     1.1970 ha         1 7MJ       0.129500
     28 H4           7.4570   -11.0610     4.2590 ha         1 7MJ       0.138000
     29 H5           7.7570   -10.7510     1.8350 ha         1 7MJ       0.138000
     30 H6           3.1570    -0.0030     1.1960 ha         1 7MJ       0.135000
     31 H7          -0.5410     0.0070     3.3320 ha         1 7MJ       0.135000
     32 H8           7.5310    -9.1160     5.7740 ha         1 7MJ       0.145000
     33 H9           8.1290    -8.4970     0.9090 ha         1 7MJ       0.146000
     34 H10          7.4270    -4.4100     2.0960 h1         1 7MJ       0.065200
     35 H11          6.4810    -5.7380     1.4060 h1         1 7MJ       0.065200
     36 H12          5.7090    -6.4440     3.5410 h1         1 7MJ       0.101700
     37 H13          9.5220    -7.3720     6.1370 h1         1 7MJ       0.050033
     38 H14          8.1380    -6.8470     7.1060 h1         1 7MJ       0.050033
     39 H15          9.2160    -5.6460     6.3810 h1         1 7MJ       0.050033
     40 H16          3.0850     0.5050     3.5690 hc         1 7MJ       0.071700
     41 H17          1.5520     0.5150     4.4530 hc         1 7MJ       0.071700
     42 H18          1.7160    -4.0450     5.6140 hn         1 7MJ       0.353700
     43 H19          5.5510    -3.5430     3.1080 hn         1 7MJ       0.345500
     44 C13          4.2110    -4.4850     4.3270 c          1 7MJ       0.618600
     45 O28          7.2710    -4.5000     5.4220 o          1 7MJ      -0.613500
     46 C1           8.7530    -6.6160     6.2440 c3         1 7MJ       0.105300
     47 O14          3.9500    -5.5200     4.9080 o          1 7MJ      -0.610100
@<TRIPOS>BOND
     1    18    14 1   
     2    18    10 1   
     3    20    14 2   
     4    20    19 1   
     5    14    21 1   
     6    10     7 ar  
     7    10     6 ar  
     8     7     3 ar  
     9    19    13 1   
    10    21    13 2   
    11    13    44 1   
    12     6     2 ar  
    13     3     1 ar  
    14    44    23 1   
    15    44    47 2   
    16    45    15 2   
    17    23    17 1   
    18     2     1 ar  
    19    46    22 1   
    20    15    22 1   
    21    15    17 1   
    22    22    11 1   
    23    17    16 1   
    24     8    11 ar  
    25     8     4 ar  
    26    11    12 ar  
    27    16    24 1   
    28     4     5 ar  
    29    12    24 1   
    30    12     9 ar  
    31     5     9 ar  
    32     1    25 1   
    33     2    26 1   
    34     3    27 1   
    35     4    28 1   
    36     5    29 1   
    37     6    30 1   
    38     7    31 1   
    39     8    32 1   
    40     9    33 1   
    41    16    34 1   
    42    16    35 1   
    43    17    36 1   
    44    46    37 1   
    45    46    38 1   
    46    46    39 1   
    47    18    40 1   
    48    18    41 1   
    49    19    42 1   
    50    23    43 1   
@<TRIPOS>SUBSTRUCTURE
     1 7MJ         1 TEMP              0 ****  ****    0 ROOT
