@<TRIPOS>MOLECULE
molecule
   30    31     1     0     0
SMALL
bcc


@<TRIPOS>ATOM
      1 C1           0.0000     0.0000     0.0000 ca         1 7MK      -0.106000
      2 C10         -1.4140    -1.3510     3.8900 c3         1 7MK      -0.103400
      3 C11         -2.7620    -1.3970     3.1970 c3         1 7MK       0.131500
      4 C2           2.0750     0.0000     1.1960 ca         1 7MK      -0.106000
      5 C3           1.3830     0.0000     0.0000 ca         1 7MK      -0.107000
      6 C4          -0.6840     0.0070     1.2030 ca         1 7MK      -0.086300
      7 C5           0.0020     0.0070     2.3900 ca         1 7MK      -0.097300
      8 C6           1.3860     0.0010     2.3960 ca         1 7MK      -0.109000
      9 C7          -2.1980     0.0140     1.2010 c3         1 7MK      -0.051100
     10 C8          -0.7500     0.0150     3.7040 c3         1 7MK      -0.020100
     11 C9          -2.6910    -1.3510     1.6840 c3         1 7MK       0.328600
     12 N1          -3.4470    -2.6340     3.5940 nz         1 7MK      -0.810600
     13 O1          -3.9910    -1.6000     1.1450 oh         1 7MK      -0.631800
     14 O2          -1.7910    -2.3630     1.2250 oh         1 7MK      -0.631800
     15 H1          -0.5450     0.0000    -0.9360 ha         1 7MK       0.136000
     16 H9          -0.7720    -2.1170     3.4700 hc         1 7MK       0.076200
     17 H10         -1.5520    -1.5360     4.9480 hc         1 7MK       0.076200
     18 H11         -3.3470    -0.5510     3.5350 hx         1 7MK       0.117700
     19 H2           3.1580     0.0000     1.1950 ha         1 7MK       0.149000
     20 H3           1.9240    -0.0010    -0.9380 ha         1 7MK       0.148000
     21 H4           1.9260     0.0010     3.3350 ha         1 7MK       0.141000
     22 H6          -2.5480     0.1770     0.1880 hc         1 7MK       0.078200
     23 H5          -2.5480     0.7780     1.8850 hc         1 7MK       0.078200
     24 H8          -0.0590     0.1970     4.5170 hc         1 7MK       0.070200
     25 H7          -1.5090     0.7880     3.6830 hc         1 7MK       0.070200
     26 H15         -2.9260    -3.4240     3.2690 hn         1 7MK       0.458467
     27 H16         -4.3640    -2.6510     3.1930 hn         1 7MK       0.458467
     28 H12         -3.9510    -1.5710     0.2040 ho         1 7MK       0.442000
     29 H13         -2.2260    -2.9040     0.5880 ho         1 7MK       0.442000
     30 H14         -3.5190    -2.6700     4.5920 hn         1 7MK       0.458467
@<TRIPOS>BOND
     1     2    10 1   
     2     2     3 1   
     3    12     3 1   
     4    10     7 1   
     5     8     7 ar  
     6     8     4 ar  
     7     3    11 1   
     8     7     6 ar  
     9     4     5 ar  
    10    14    11 1   
    11    11    13 1   
    12    11     9 1   
    13     6     1 ar  
    14     6     9 1   
    15     5     1 ar  
    16     1    15 1   
    17     2    16 1   
    18     2    17 1   
    19     3    18 1   
    20     4    19 1   
    21     5    20 1   
    22     8    21 1   
    23     9    22 1   
    24     9    23 1   
    25    10    24 1   
    26    10    25 1   
    27    12    26 1   
    28    12    27 1   
    29    13    28 1   
    30    14    29 1   
    31    30    12 1   
@<TRIPOS>SUBSTRUCTURE
     1 7MK         1 TEMP              0 ****  ****    0 ROOT
