@<TRIPOS>MOLECULE
7ML
   40    42     1     0     0
SMALL
bcc


@<TRIPOS>ATOM
      1 C1           0.0000     0.0000     0.0000 ca         1 7ML      -0.099500
      2 C10         -2.8790     1.0100     1.8810 ca         1 7ML      -0.077300
      3 C11         -4.2470     1.0060     1.8900 ca         1 7ML      -0.112300
      4 C12         -4.9490     0.0080     1.2340 ca         1 7ML      -0.085000
      5 C13         -2.1160     2.1030     2.6000 c3         1 7ML      -0.025100
      6 C14         -5.0060     2.0960     2.6180 c3         1 7ML       0.051900
      7 C15         -2.2900     3.4080     1.8200 c3         1 7ML       0.374600
      8 C16         -4.8420     3.4040     1.8400 c3         1 7ML      -0.029400
      9 C17         -3.5620     4.1200     2.2320 c3         1 7ML      -0.117500
     10 C2           1.3800     0.0000     0.0000 ca         1 7ML      -0.093000
     11 C3           2.0740     0.0000     1.1960 ca         1 7ML      -0.087000
     12 C4           1.3900    -0.0000     2.3980 ca         1 7ML      -0.093000
     13 C5           0.0100    -0.0000     2.4100 ca         1 7ML      -0.099500
     14 C6          -0.6950     0.0050     1.2080 cp         1 7ML      -0.053000
     15 C7          -2.1780     0.0050     1.2140 cp         1 7ML       0.002000
     16 C8          -4.2650    -0.9910     0.5650 ca         1 7ML      -0.078000
     17 C9          -2.8850    -0.9990     0.5540 ca         1 7ML      -0.072000
     18 N1          -3.5740     5.4590     1.6300 nz         1 7ML       0.067400
     19 O2          -2.3480     3.1170     0.4220 oh         1 7ML      -0.586300
     20 H1          -0.5420     0.0020    -0.9380 ha         1 7ML       0.110000
     21 H8          -6.0330     0.0130     1.2410 ha         1 7ML       0.112000
     22 H10         -1.0640     1.8430     2.6220 hc         1 7ML       0.061700
     23 H9          -2.5310     2.2270     3.5930 hc         1 7ML       0.061700
     24 H12         -4.6020     2.2140     3.6160 hc         1 7ML       0.035200
     25 H11         -6.0560     1.8340     2.6730 hc         1 7ML       0.035200
     26 H13         -4.8140     3.1830     0.7800 hc         1 7ML       0.042200
     27 H14         -5.6870     4.0480     2.0520 hc         1 7ML       0.042200
     28 H15         -3.5540     4.2280     3.3100 hx         1 7ML       0.086700
     29 H2           1.9200    -0.0020    -0.9390 ha         1 7ML       0.110500
     30 H3           3.1570     0.0000     1.1910 ha         1 7ML       0.112000
     31 H4           1.9390    -0.0020     3.3330 ha         1 7ML       0.110500
     32 H5          -0.5250     0.0020     3.3520 ha         1 7ML       0.110000
     33 H6          -4.8140    -1.7710     0.0520 ha         1 7ML       0.116000
     34 H7          -2.3510    -1.7830     0.0300 ha         1 7ML       0.122000
     35 H19         -3.5810     5.3760     0.6320 hn         1 7ML       0.227800
     36 H20         -4.3930     5.9520     1.9280 hn         1 7ML       0.227800
     37 H16         -1.0420     4.3380     3.0060 ho         1 7ML       0.423500
     38 H17         -1.7520     3.6820    -0.0410 ho         1 7ML       0.423500
     39 H18         -2.7580     5.9620     1.9170 hn         1 7ML       0.227800
     40 O1          -1.1720     4.2600     2.0760 oh         1 7ML      -0.586300
@<TRIPOS>BOND
     1     1    10 ar  
     2     1    14 ar  
     3     1    20 1   
     4     2     3 ar  
     5     2     5 1   
     6     2    15 ar  
     7     3     4 ar  
     8     3     6 1   
     9     4    16 ar  
    10     4    21 1   
    11     5     7 1   
    12     5    22 1   
    13     5    23 1   
    14     6     8 1   
    15     6    24 1   
    16     6    25 1   
    17     7     9 1   
    18     7    19 1   
    19     7    40 1   
    20     8     9 1   
    21     8    26 1   
    22     8    27 1   
    23     9    18 1   
    24     9    28 1   
    25    10    11 ar  
    26    10    29 1   
    27    11    12 ar  
    28    11    30 1   
    29    12    13 ar  
    30    12    31 1   
    31    13    14 ar  
    32    13    32 1   
    33    14    15 1   
    34    15    17 ar  
    35    16    17 ar  
    36    16    33 1   
    37    17    34 1   
    38    18    35 1   
    39    18    36 1   
    40    18    39 1   
    41    19    38 1   
    42    37    40 1   
@<TRIPOS>SUBSTRUCTURE
     1 7ML         1 TEMP              0 ****  ****    0 ROOT
