@<TRIPOS>MOLECULE
7MP
   51    54     1     0     0
SMALL
bcc


@<TRIPOS>ATOM
      1 OAK        -0.0300    1.0070    0.0730 o         1 7MP     -0.522500
      2 CAH         1.1460    0.6230    0.1040 c         1 7MP      0.796500
      3 NAG         1.8900    0.6370    1.3160 n         1 7MP     -0.328400
      4 CAT         1.2290    1.1000    2.5240 c3        1 7MP      0.066300
      5 C4          3.2060    0.1840    1.3570 ca        1 7MP      0.596300
      6 N3          3.8930    0.1920    2.5270 nb        1 7MP     -0.811000
      7 C2          5.2080   -0.2770    2.4900 ca        1 7MP      0.981900
      8 NAS         5.9150   -0.2790    3.6470 nh        1 7MP     -0.869500
      9 N1          5.8640   -0.7590    1.3150 nb        1 7MP     -0.725000
     10 C6          5.1680   -0.7520    0.2060 ca        1 7MP      0.572200
     11 C5          3.8070   -0.2920    0.1180 ca        1 7MP     -0.493600
     12 CAJ         3.0690   -0.2950   -1.0660 cc        1 7MP      0.201600
     13 NAI         1.7980    0.1600   -1.1000 n         1 7MP     -0.204200
     14 CAL         1.0420    0.0720   -2.3240 ca        1 7MP     -0.019400
     15 CAQ         0.6240    1.2300   -3.0070 ca        1 7MP     -0.047300
     16 CAR         0.9050    2.5960   -2.5110 c3        1 7MP     -0.070800
     17 CAP        -0.0920    1.0550   -4.2010 ca        1 7MP     -0.092000
     18 CAO        -0.3640   -0.2010   -4.7150 ca        1 7MP     -0.137000
     19 CAM         0.7600   -1.2160   -2.8180 ca        1 7MP     -0.149000
     20 CAN         0.0720   -1.3680   -4.0360 ca        1 7MP      0.087600
     21 NAU        -0.2120   -2.6270   -4.5810 n         1 7MP     -0.472100
     22 CAV         0.4730   -3.8090   -4.2970 c         1 7MP      0.693700
     23 OAW         1.4200   -3.8400   -3.4900 o         1 7MP     -0.592100
     24 CAX         0.0210   -5.0260   -5.0260 ca        1 7MP     -0.164600
     25 CBC         1.0020   -5.9320   -5.4460 ca        1 7MP     -0.029000
     26 CAY        -1.3320   -5.2950   -5.2610 ca        1 7MP     -0.075000
     27 CAZ        -1.7020   -6.4640   -5.9250 ca        1 7MP     -0.135000
     28 CBA        -0.7300   -7.3640   -6.3610 ca        1 7MP     -0.047000
     29 CBB         0.6190   -7.0930   -6.1190 ca        1 7MP     -0.172300
     30 CBD         1.6900   -8.0670   -6.6030 c3        1 7MP      0.689200
     31 FBE         1.2730   -9.3720   -6.6850 f         1 7MP     -0.228633
     32 FBF         2.1720   -7.7810   -7.8580 f         1 7MP     -0.228633
     33 FBG         2.8110   -8.1130   -5.8110 f         1 7MP     -0.228633
     34 HAT1        1.7990    1.9710    2.9450 h1        1 7MP      0.087700
     35 HAT2        0.1780    1.4200    2.2880 h1        1 7MP      0.087700
     36 HAT3        1.2060    0.2670    3.2770 h1        1 7MP      0.087700
     37 HAS1        6.8560   -0.6080    3.6610 hn        1 7MP      0.481800
     38 HAS2        5.5020    0.0450    4.4940 hn        1 7MP      0.481800
     39 H6          5.6810   -1.1300   -0.7050 h4        1 7MP      0.063100
     40 HAJ         3.5030   -0.6730   -2.0210 h4        1 7MP      0.212000
     41 HAR1        2.0040    2.7540   -2.3780 hc        1 7MP      0.061367
     42 HAR2        0.5290    3.3690   -3.2270 hc        1 7MP      0.061367
     43 HAR3        0.3960    2.7610   -1.5260 hc        1 7MP      0.061367
     44 HAP        -0.4420    1.9490   -4.7460 ha        1 7MP      0.161000
     45 HAO        -0.9240   -0.2840   -5.6620 ha        1 7MP      0.156000
     46 HAM         1.0800   -2.1090   -2.2520 ha        1 7MP      0.180000
     47 HNAU       -0.8770   -2.6430   -5.3240 hn        1 7MP      0.334500
     48 HBC         2.0660   -5.7340   -5.2330 ha        1 7MP      0.172000
     49 HAY        -2.1150   -4.6060   -4.9070 ha        1 7MP      0.144000
     50 HAZ        -2.7670   -6.6800   -6.1050 ha        1 7MP      0.158000
     51 HBA        -1.0190   -8.2900   -6.8870 ha        1 7MP      0.167000
@<TRIPOS>BOND
     1    1    2 2
     2    2    3 1
     3    2   13 1
     4    3    4 1
     5    3    5 2
     6    4   34 1
     7    4   35 1
     8    4   36 1
     9    5    6 ar
    10    5   11 ar
    11    6    7 ar
    12    7    8 1
    13    7    9 ar
    14    8   37 1
    15    8   38 1
    16    9   10 ar
    17   10   11 ar
    18   10   39 1
    19   11   12 2
    20   12   13 1
    21   12   40 1
    22   13   14 1
    23   14   15 ar
    24   14   19 ar
    25   15   16 1
    26   15   17 ar
    27   16   41 1
    28   16   42 1
    29   16   43 1
    30   17   18 ar
    31   17   44 1
    32   18   20 ar
    33   18   45 1
    34   19   20 ar
    35   19   46 1
    36   20   21 1
    37   21   22 1
    38   21   47 1
    39   22   23 2
    40   22   24 1
    41   24   25 ar
    42   24   26 ar
    43   25   29 ar
    44   25   48 1
    45   26   27 ar
    46   26   49 1
    47   27   28 ar
    48   27   50 1
    49   28   29 ar
    50   28   51 1
    51   29   30 1
    52   30   31 1
    53   30   32 1
    54   30   33 1
@<TRIPOS>SUBSTRUCTURE
     1 7MP         1 TEMP              0 ****  ****    0 ROOT
