@<TRIPOS>MOLECULE
molecule
  112   113     1     0     0
SMALL
bcc


@<TRIPOS>ATOM
      1 C1           0.0000     0.0000     0.0000 c          1 7MQ       0.584900
      2 O1          -0.6090     0.0060    -1.0510 o          1 7MQ      -0.523100
      3 C2           1.4750     0.0000     0.0000 cc         1 7MQ      -0.105400
      4 C3M          3.6680     0.0060     1.1150 c3         1 7MQ      -0.058900
      5 C3           2.1620     0.0000     1.1500 cd         1 7MQ      -0.128400
      6 C4           1.4650    -0.0060     2.4490 c          1 7MQ       0.575900
      7 O4           2.1030    -0.0060     3.4830 o          1 7MQ      -0.507100
      8 C5          -0.0130    -0.0120     2.4890 ca         1 7MQ      -0.133600
      9 C6          -0.6940    -0.0170     3.7010 ca         1 7MQ      -0.080000
     10 C7          -2.0800    -0.0220     3.7120 ca         1 7MQ      -0.116000
     11 C8          -2.7890    -0.0220     2.5260 ca         1 7MQ      -0.118000
     12 C9          -2.1240    -0.0170     1.3090 ca         1 7MQ      -0.081000
     13 C10         -0.7340    -0.0120     1.2820 ca         1 7MQ      -0.135600
     14 C11          2.2180     0.0070    -1.3100 c3         1 7MQ      -0.049000
     15 C12          2.4710    -1.4120    -1.7510 c2         1 7MQ      -0.499200
     16 C13          2.0850    -1.8080    -2.9390 c2         1 7MQ       0.049600
     17 C14          1.4870    -0.8180    -3.9040 c3         1 7MQ      -0.136900
     18 C15          2.2410    -3.2520    -3.3380 c3         1 7MQ      -0.007200
     19 C16          0.9800    -4.0260    -2.9520 c3         1 7MQ      -0.073200
     20 C17          1.1340    -5.4710    -3.3520 c2         1 7MQ      -0.526200
     21 C18          0.9710    -6.4180    -2.4620 c2         1 7MQ       0.049600
     22 C19          0.5080    -6.0730    -1.0700 c3         1 7MQ      -0.130900
     23 C20          1.2480    -7.8530    -2.8290 c3         1 7MQ      -0.071200
     24 C21          2.7130    -8.1820    -2.5370 c3         1 7MQ      -0.085200
     25 C22          2.9880    -9.6170    -2.9040 c2         1 7MQ      -0.517200
     26 C23          3.9550    -9.9040    -3.7410 c2         1 7MQ       0.028600
     27 C24          4.7080    -8.7960    -4.4310 c3         1 7MQ      -0.130900
     28 C25          4.3120   -11.3410    -4.0140 c3         1 7MQ      -0.004200
     29 C26          3.4840   -11.8580    -5.1910 c3         1 7MQ      -0.081200
     30 C27          3.8420   -13.2970    -5.4650 c2         1 7MQ      -0.512200
     31 C28          2.9060   -14.2130    -5.4790 c2         1 7MQ       0.036600
     32 C29          1.4600   -13.8150    -5.3350 c3         1 7MQ      -0.131900
     33 C30          3.2750   -15.6650    -5.6390 c3         1 7MQ      -0.005200
     34 C31          3.5060   -16.2880    -4.2620 c3         1 7MQ      -0.076200
     35 C32          3.8760   -17.7400    -4.4230 c2         1 7MQ      -0.518200
     36 C33          4.9800   -18.1980    -3.8870 c2         1 7MQ       0.039600
     37 C34          5.8220   -17.3020    -3.0160 c3         1 7MQ      -0.132900
     38 C35          5.4070   -19.6200    -4.1420 c3         1 7MQ      -0.006200
     39 C36          6.2930   -19.6710    -5.3870 c3         1 7MQ      -0.074200
     40 C37          6.7200   -21.0930    -5.6430 c2         1 7MQ      -0.514200
     41 C38          6.4970   -21.6460    -6.8090 c2         1 7MQ       0.048600
     42 C39          5.9270   -20.8220    -7.9350 c3         1 7MQ      -0.131900
     43 C40          6.8100   -23.1040    -7.0250 c3         1 7MQ      -0.041200
     44 C41          5.5820   -23.9460    -6.6770 c3         1 7MQ      -0.037200
     45 C42          5.8950   -25.4040    -6.8930 c2         1 7MQ      -0.189200
     46 C43          5.7150   -26.2640    -5.9210 c2         1 7MQ      -0.124400
     47 C44          6.1440   -27.6980    -6.0940 c3         1 7MQ      -0.053400
     48 C45          5.0790   -25.8180    -4.6290 c3         1 7MQ      -0.053400
     49 H3M1         4.0210    -0.8770     0.5950 hc         1 7MQ       0.059700
     50 H3M2         4.0530     0.0070     2.1270 hc         1 7MQ       0.059700
     51 H3M3         4.0140     0.8920     0.5960 hc         1 7MQ       0.059700
     52 H6          -0.1430    -0.0180     4.6340 ha         1 7MQ       0.157000
     53 H7          -2.6100    -0.0260     4.6560 ha         1 7MQ       0.139000
     54 H8          -3.8720    -0.0260     2.5460 ha         1 7MQ       0.138000
     55 H9          -2.6850    -0.0170     0.3830 ha         1 7MQ       0.154000
     56 H111         1.6250     0.5180    -2.0590 hc         1 7MQ       0.048700
     57 H112         3.1630     0.5210    -1.1860 hc         1 7MQ       0.048700
     58 H12          3.1210    -0.5940    -2.0370 ha         1 7MQ       0.315000
     59 H141         0.5190    -0.4960    -3.5390 hc         1 7MQ       0.057033
     60 H142         1.3690    -1.2850    -4.8740 hc         1 7MQ       0.057033
     61 H143         2.1420     0.0400    -3.9940 hc         1 7MQ       0.057033
     62 H151         3.0960    -3.6770    -2.8290 hc         1 7MQ       0.068700
     63 H152         2.3900    -3.3160    -4.4100 hc         1 7MQ       0.068700
     64 H161         0.8310    -3.9620    -1.8800 hc         1 7MQ       0.040700
     65 H162         0.1240    -3.6000    -3.4610 hc         1 7MQ       0.040700
     66 H17          0.1630    -4.9940    -3.2920 ha         1 7MQ       0.327000
     67 H191         0.3210    -6.9840    -0.5150 hc         1 7MQ       0.056367
     68 H192         1.2750    -5.4950    -0.5680 hc         1 7MQ       0.056367
     69 H193        -0.4040    -5.4910    -1.1270 hc         1 7MQ       0.056367
     70 H201         0.6080    -8.5050    -2.2460 hc         1 7MQ       0.064700
     71 H202         1.0490    -8.0010    -3.8840 hc         1 7MQ       0.064700
     72 H211         2.9120    -8.0350    -1.4820 hc         1 7MQ       0.066200
     73 H212         3.3520    -7.5310    -3.1190 hc         1 7MQ       0.066200
     74 H22          2.3860    -8.9710    -3.5320 ha         1 7MQ       0.338000
     75 H241         5.4850    -9.2220    -5.0550 hc         1 7MQ       0.053033
     76 H242         5.1560    -8.1470    -3.6890 hc         1 7MQ       0.053033
     77 H243         4.0240    -8.2230    -5.0460 hc         1 7MQ       0.053033
     78 H251         5.3660   -11.4120    -4.2540 hc         1 7MQ       0.071700
     79 H252         4.1010   -11.9390    -3.1350 hc         1 7MQ       0.071700
     80 H261         2.4300   -11.7870    -4.9510 hc         1 7MQ       0.032700
     81 H262         3.6950   -11.2610    -6.0700 hc         1 7MQ       0.032700
     82 H27          3.4630   -12.6400    -6.2390 ha         1 7MQ       0.322000
     83 H291         1.2160   -13.0650    -6.0790 hc         1 7MQ       0.052367
     84 H292         1.2940   -13.4080    -4.3450 hc         1 7MQ       0.052367
     85 H293         0.8300   -14.6840    -5.4790 hc         1 7MQ       0.052367
     86 H301         4.1810   -15.7440    -6.2280 hc         1 7MQ       0.066200
     87 H302         2.4710   -16.1880    -6.1420 hc         1 7MQ       0.066200
     88 H311         2.6000   -16.2090    -3.6740 hc         1 7MQ       0.038200
     89 H312         4.3100   -15.7640    -3.7590 hc         1 7MQ       0.038200
     90 H32          3.3850   -17.3650    -3.5330 ha         1 7MQ       0.324000
     91 H341         6.6280   -17.8780    -2.5770 hc         1 7MQ       0.053700
     92 H342         5.2080   -16.8820    -2.2280 hc         1 7MQ       0.053700
     93 H343         6.2370   -16.5010    -3.6160 hc         1 7MQ       0.053700
     94 H351         5.9630   -19.9890    -3.2880 hc         1 7MQ       0.067700
     95 H352         4.5310   -20.2380    -4.2970 hc         1 7MQ       0.067700
     96 H361         5.7370   -19.3020    -6.2410 hc         1 7MQ       0.036700
     97 H362         7.1690   -19.0530    -5.2330 hc         1 7MQ       0.036700
     98 H37          7.3260   -20.2500    -5.9530 ha         1 7MQ       0.320000
     99 H391         6.5240   -19.9280    -8.0660 hc         1 7MQ       0.052367
    100 H392         5.9410   -21.4020    -8.8500 hc         1 7MQ       0.052367
    101 H393         4.9070   -20.5440    -7.6990 hc         1 7MQ       0.052367
    102 H401         7.0760   -23.2670    -8.0630 hc         1 7MQ       0.055200
    103 H402         7.6380   -23.3940    -6.3900 hc         1 7MQ       0.055200
    104 H411         4.7540   -23.6570    -7.3120 hc         1 7MQ       0.056200
    105 H412         5.3160   -23.7840    -5.6390 hc         1 7MQ       0.056200
    106 H42          6.3530   -25.7260    -7.8210 ha         1 7MQ       0.121000
    107 H441         5.5540   -28.1600    -6.8760 hc         1 7MQ       0.041867
    108 H442         7.1930   -27.7310    -6.3650 hc         1 7MQ       0.041867
    109 H443         5.9950   -28.2340    -5.1640 hc         1 7MQ       0.041867
    110 H451         4.8630   -26.6850    -4.0150 hc         1 7MQ       0.041867
    111 H452         5.7580   -25.1610    -4.1000 hc         1 7MQ       0.041867
    112 H453         4.1580   -25.2900    -4.8440 hc         1 7MQ       0.041867
@<TRIPOS>BOND
     1     1     2 2
     2     1     3 1
     3     1    13 1
     4     3     5 2
     5     3    14 1
     6     4     5 1
     7     4    49 1
     8     4    50 1
     9     4    51 1
    10     5     6 1
    11     6     7 2
    12     6     8 1
    13     8     9 ar
    14     8    13 ar
    15     9    10 ar
    16     9    52 1
    17    10    11 ar
    18    10    53 1
    19    11    12 ar
    20    11    54 1
    21    12    13 ar
    22    12    55 1
    23    14    15 1
    24    14    56 1
    25    14    57 1
    26    15    16 2
    27    15    58 1
    28    16    17 1
    29    16    18 1
    30    17    59 1
    31    17    60 1
    32    17    61 1
    33    18    19 1
    34    18    62 1
    35    18    63 1
    36    19    20 1
    37    19    64 1
    38    19    65 1
    39    20    21 2
    40    20    66 1
    41    21    22 1
    42    21    23 1
    43    22    67 1
    44    22    68 1
    45    22    69 1
    46    23    24 1
    47    23    70 1
    48    23    71 1
    49    24    25 1
    50    24    72 1
    51    24    73 1
    52    25    26 2
    53    25    74 1
    54    26    27 1
    55    26    28 1
    56    27    75 1
    57    27    76 1
    58    27    77 1
    59    28    29 1
    60    28    78 1
    61    28    79 1
    62    29    30 1
    63    29    80 1
    64    29    81 1
    65    30    31 2
    66    30    82 1
    67    31    32 1
    68    31    33 1
    69    32    83 1
    70    32    84 1
    71    32    85 1
    72    33    34 1
    73    33    86 1
    74    33    87 1
    75    34    35 1
    76    34    88 1
    77    34    89 1
    78    35    36 2
    79    35    90 1
    80    36    37 1
    81    36    38 1
    82    37    91 1
    83    37    92 1
    84    37    93 1
    85    38    39 1
    86    38    94 1
    87    38    95 1
    88    39    40 1
    89    39    96 1
    90    39    97 1
    91    40    41 2
    92    40    98 1
    93    41    42 1
    94    41    43 1
    95    42    99 1
    96    42   100 1
    97    42   101 1
    98    43    44 1
    99    43   102 1
   100    43   103 1
   101    44    45 1
   102    44   104 1
   103    44   105 1
   104    45    46 2
   105    45   106 1
   106    46    47 1
   107    46    48 1
   108    47   107 1
   109    47   108 1
   110    47   109 1
   111    48   110 1
   112    48   111 1
   113    48   112 1
@<TRIPOS>SUBSTRUCTURE
     1 7MQ         1 TEMP              0 ****  ****    0 ROOT
