@<TRIPOS>MOLECULE
7MQ
  112   113     1     0     0
SMALL
bcc


@<TRIPOS>ATOM
      1 C1          0.3110    0.6700    0.7120 c         1 7MQ      0.574900
      2 O1         -0.4480    0.2680    1.6050 o         1 7MQ     -0.519100
      3 C2         -0.0550    0.5850   -0.7240 cc        1 7MQ     -0.126400
      4 C3M         0.2850    1.1680   -3.1130 c3        1 7MQ     -0.069900
      5 C3          0.6620    1.2150   -1.6790 cd        1 7MQ     -0.127400
      6 C4          1.8720    2.0090   -1.3500 c         1 7MQ      0.570900
      7 O4          2.4400    2.7110   -2.1970 o         1 7MQ     -0.515100
      8 C5          2.3780    1.9120    0.0360 ca        1 7MQ     -0.133600
      9 C6          3.6170    2.4750    0.3590 ca        1 7MQ     -0.085000
     10 C7          4.1090    2.3870    1.6630 ca        1 7MQ     -0.117000
     11 C8          3.3640    1.7430    2.6480 ca        1 7MQ     -0.117000
     12 C9          2.1240    1.1840    2.3340 ca        1 7MQ     -0.086000
     13 C10         1.6270    1.2630    1.0290 ca        1 7MQ     -0.132600
     14 C11        -1.2730   -0.2230   -1.0350 c3        1 7MQ     -0.015000
     15 C12        -0.9280   -1.6290   -1.3680 c2        1 7MQ     -0.187200
     16 C13        -1.2830   -2.7020   -0.6440 c2        1 7MQ     -0.092400
     17 C14        -2.0570   -2.6140    0.6180 c3        1 7MQ     -0.072900
     18 C15        -0.9220   -4.0780   -1.0960 c3        1 7MQ     -0.044200
     19 C16         0.2350   -4.6440   -0.2930 c3        1 7MQ     -0.043200
     20 C17         0.5790   -6.0220   -0.7130 c2        1 7MQ     -0.175200
     21 C18         1.6670   -6.6770   -0.2770 c2        1 7MQ     -0.122400
     22 C19         2.6320   -6.0630    0.6660 c3        1 7MQ     -0.059900
     23 C20         1.9610   -8.0720   -0.7140 c3        1 7MQ     -0.039200
     24 C21         3.1880   -8.1320   -1.6070 c3        1 7MQ     -0.044200
     25 C22         3.5240   -9.5210   -1.9960 c2        1 7MQ     -0.174200
     26 C23         4.4580   -9.8270   -2.9110 c2        1 7MQ     -0.123400
     27 C24         5.2350   -8.7840   -3.6230 c3        1 7MQ     -0.058900
     28 C25         4.7740  -11.2420   -3.2540 c3        1 7MQ     -0.038200
     29 C26         4.3360  -11.5870   -4.6660 c3        1 7MQ     -0.044200
     30 C27         4.7000  -12.9740   -5.0370 c2        1 7MQ     -0.174200
     31 C28         4.2810  -13.5730   -6.1640 c2        1 7MQ     -0.123400
     32 C29         3.3980  -12.8880   -7.1390 c3        1 7MQ     -0.058900
     33 C30         4.6920  -14.9650   -6.5030 c3        1 7MQ     -0.038200
     34 C31         3.5200  -15.9270   -6.4330 c3        1 7MQ     -0.044200
     35 C32         3.9080  -17.3030   -6.8220 c2        1 7MQ     -0.174200
     36 C33         3.0970  -18.3650   -6.6910 c2        1 7MQ     -0.123400
     37 C34         1.7300  -18.2480   -6.1290 c3        1 7MQ     -0.058900
     38 C35         3.5270  -19.7280   -7.1150 c3        1 7MQ     -0.038200
     39 C36         3.7120  -20.6520   -5.9260 c3        1 7MQ     -0.043200
     40 C37         4.0890  -22.0230   -6.3410 c2        1 7MQ     -0.174200
     41 C38         4.4610  -22.9820   -5.4780 c2        1 7MQ     -0.123400
     42 C39         4.5360  -22.7410   -4.0170 c3        1 7MQ     -0.058900
     43 C40         4.8140  -24.3530   -5.9440 c3        1 7MQ     -0.038200
     44 C41         6.2920  -24.6440   -5.7600 c3        1 7MQ     -0.043200
     45 C42         6.6420  -26.0240   -6.1690 c2        1 7MQ     -0.177200
     46 C43         7.9030  -26.4820   -6.2210 c2        1 7MQ     -0.124400
     47 C44         8.2140  -27.8720   -6.6320 c3        1 7MQ     -0.057900
     48 C45         9.0680  -25.6310   -5.8790 c3        1 7MQ     -0.057900
     49 H3M1       -0.6780    1.7170   -3.2730 hc        1 7MQ      0.060033
     50 H3M2        1.0700    1.6430   -3.7530 hc        1 7MQ      0.060033
     51 H3M3        0.1440    0.1090   -3.4460 hc        1 7MQ      0.060033
     52 H6          4.1940    2.9900   -0.4260 ha        1 7MQ      0.160000
     53 H7          5.0860    2.8300    1.9090 ha        1 7MQ      0.142000
     54 H8          3.7500    1.6740    3.6760 ha        1 7MQ      0.142000
     55 H9          1.5230    0.6800    3.1080 ha        1 7MQ      0.159000
     56 H111       -1.8120    0.2320   -1.9130 hc        1 7MQ      0.068700
     57 H112       -1.9760   -0.1800   -0.1570 hc        1 7MQ      0.068700
     58 H12        -0.3430   -1.7520   -2.2950 ha        1 7MQ      0.120000
     59 H141       -2.0540   -3.5910    1.1620 hc        1 7MQ      0.050367
     60 H142       -3.1190   -2.3390    0.3990 hc        1 7MQ      0.050367
     61 H143       -1.6260   -1.8320    1.2960 hc        1 7MQ      0.050367
     62 H151       -0.6460   -4.0720   -2.1850 hc        1 7MQ      0.047700
     63 H152       -1.8180   -4.7470   -0.9840 hc        1 7MQ      0.047700
     64 H161        1.1330   -3.9760   -0.4080 hc        1 7MQ      0.052200
     65 H162       -0.0300   -4.6420    0.8010 hc        1 7MQ      0.052200
     66 H17        -0.1210   -6.5030   -1.4150 ha        1 7MQ      0.122000
     67 H191        3.2120   -5.2550    0.1510 hc        1 7MQ      0.041700
     68 H192        3.3550   -6.8180    1.0600 hc        1 7MQ      0.041700
     69 H193        2.0940   -5.6010    1.5320 hc        1 7MQ      0.041700
     70 H201        2.1280   -8.7110    0.1940 hc        1 7MQ      0.046200
     71 H202        1.0830   -8.5030   -1.2660 hc        1 7MQ      0.046200
     72 H211        4.0640   -7.6720   -1.0700 hc        1 7MQ      0.050200
     73 H212        3.0120   -7.5110   -2.5280 hc        1 7MQ      0.050200
     74 H22         2.9600  -10.3170   -1.4840 ha        1 7MQ      0.123000
     75 H241        6.0890   -9.2280   -4.1910 hc        1 7MQ      0.041367
     76 H242        5.6430   -8.0350   -2.8990 hc        1 7MQ      0.041367
     77 H243        4.5760   -8.2400   -4.3470 hc        1 7MQ      0.041367
     78 H251        5.8820  -11.4030   -3.1570 hc        1 7MQ      0.045700
     79 H252        4.2740  -11.9420   -2.5320 hc        1 7MQ      0.045700
     80 H261        3.2240  -11.4490   -4.7580 hc        1 7MQ      0.050200
     81 H262        4.8110  -10.8690   -5.3910 hc        1 7MQ      0.050200
     82 H27         5.3550  -13.5090   -4.3300 ha        1 7MQ      0.122000
     83 H291        3.7910  -11.8670   -7.3740 hc        1 7MQ      0.041367
     84 H292        3.3190  -13.4650   -8.0930 hc        1 7MQ      0.041367
     85 H293        2.3700  -12.7720   -6.7110 hc        1 7MQ      0.041367
     86 H301        5.1240  -14.9760   -7.5400 hc        1 7MQ      0.045700
     87 H302        5.4990  -15.3160   -5.8050 hc        1 7MQ      0.045700
     88 H311        2.6980  -15.5650   -7.1100 hc        1 7MQ      0.050200
     89 H312        3.1010  -15.9320   -5.3890 hc        1 7MQ      0.050200
     90 H32         4.9210  -17.4200   -7.2410 ha        1 7MQ      0.122000
     91 H341        1.7820  -18.0350   -5.0310 hc        1 7MQ      0.041367
     92 H342        1.1760  -17.4060   -6.6170 hc        1 7MQ      0.041367
     93 H343        1.1450  -19.1890   -6.2780 hc        1 7MQ      0.041367
     94 H351        2.7510  -20.1570   -7.8060 hc        1 7MQ      0.045700
     95 H352        4.4890  -19.6730   -7.6920 hc        1 7MQ      0.045700
     96 H361        4.5020  -20.2320   -5.2440 hc        1 7MQ      0.050200
     97 H362        2.7580  -20.6910   -5.3300 hc        1 7MQ      0.050200
     98 H37         4.0450  -22.2300   -7.4230 ha        1 7MQ      0.123000
     99 H391        5.3990  -22.0670   -3.7820 hc        1 7MQ      0.041367
    100 H392        4.6710  -23.6950   -3.4520 hc        1 7MQ      0.041367
    101 H393        3.6020  -22.2430   -3.6530 hc        1 7MQ      0.041367
    102 H401        4.2100  -25.1020   -5.3650 hc        1 7MQ      0.045700
    103 H402        4.5460  -24.4790   -7.0280 hc        1 7MQ      0.045700
    104 H411        6.8970  -23.9080   -6.3560 hc        1 7MQ      0.049700
    105 H412        6.5710  -24.4910   -4.6800 hc        1 7MQ      0.049700
    106 H42         5.7970  -26.6810   -6.4330 ha        1 7MQ      0.122000
    107 H441        8.7250  -28.4130   -5.7960 hc        1 7MQ      0.040533
    108 H442        8.9000  -27.8670   -7.5150 hc        1 7MQ      0.040533
    109 H443        7.2910  -28.4390   -6.9050 hc        1 7MQ      0.040533
    110 H451        9.1850  -24.8150   -6.6360 hc        1 7MQ      0.040533
    111 H452       10.0130  -26.2250   -5.8520 hc        1 7MQ      0.040533
    112 H453        8.9210  -25.1510   -4.8780 hc        1 7MQ      0.040533
@<TRIPOS>BOND
     1    1    2 2   
     2    1    3 1   
     3    1   13 1   
     4    3    5 2   
     5    3   14 1   
     6    4    5 1   
     7    4   49 1   
     8    4   50 1   
     9    4   51 1   
    10    5    6 1   
    11    6    7 2   
    12    6    8 1   
    13    8    9 ar  
    14    8   13 ar  
    15    9   10 ar  
    16    9   52 1   
    17   10   11 ar  
    18   10   53 1   
    19   11   12 ar  
    20   11   54 1   
    21   12   13 ar  
    22   12   55 1   
    23   14   15 1   
    24   14   56 1   
    25   14   57 1   
    26   15   16 2   
    27   15   58 1   
    28   16   17 1   
    29   16   18 1   
    30   17   59 1   
    31   17   60 1   
    32   17   61 1   
    33   18   19 1   
    34   18   62 1   
    35   18   63 1   
    36   19   20 1   
    37   19   64 1   
    38   19   65 1   
    39   20   21 2   
    40   20   66 1   
    41   21   22 1   
    42   21   23 1   
    43   22   67 1   
    44   22   68 1   
    45   22   69 1   
    46   23   24 1   
    47   23   70 1   
    48   23   71 1   
    49   24   25 1   
    50   24   72 1   
    51   24   73 1   
    52   25   26 2   
    53   25   74 1   
    54   26   27 1   
    55   26   28 1   
    56   27   75 1   
    57   27   76 1   
    58   27   77 1   
    59   28   29 1   
    60   28   78 1   
    61   28   79 1   
    62   29   30 1   
    63   29   80 1   
    64   29   81 1   
    65   30   31 2   
    66   30   82 1   
    67   31   32 1   
    68   31   33 1   
    69   32   83 1   
    70   32   84 1   
    71   32   85 1   
    72   33   34 1   
    73   33   86 1   
    74   33   87 1   
    75   34   35 1   
    76   34   88 1   
    77   34   89 1   
    78   35   36 2   
    79   35   90 1   
    80   36   37 1   
    81   36   38 1   
    82   37   91 1   
    83   37   92 1   
    84   37   93 1   
    85   38   39 1   
    86   38   94 1   
    87   38   95 1   
    88   39   40 1   
    89   39   96 1   
    90   39   97 1   
    91   40   41 2   
    92   40   98 1   
    93   41   42 1   
    94   41   43 1   
    95   42   99 1   
    96   42  100 1   
    97   42  101 1   
    98   43   44 1   
    99   43  102 1   
   100   43  103 1   
   101   44   45 1   
   102   44  104 1   
   103   44  105 1   
   104   45   46 2   
   105   45  106 1   
   106   46   47 1   
   107   46   48 1   
   108   47  107 1   
   109   47  108 1   
   110   47  109 1   
   111   48  110 1   
   112   48  111 1   
   113   48  112 1   
@<TRIPOS>SUBSTRUCTURE
     1 7MQ         1 TEMP              0 ****  ****    0 ROOT
