@<TRIPOS>MOLECULE
7MR
   43    44     1     0     0
SMALL
bcc


@<TRIPOS>ATOM
      1 CAI          0.0000     0.0000     0.0000 ca         1 7MR      -0.132500
      2 CAH          1.3950     0.0000     0.0000 ca         1 7MR      -0.069500
      3 CAG          2.0920     0.0000     1.2090 ca         1 7MR      -0.102000
      4 CAR          1.3940     0.0000     2.4170 ca         1 7MR      -0.069500
      5 CAS         -0.0010     0.0010     2.4160 ca         1 7MR      -0.132500
      6 CAT         -0.6740     0.0000     1.2070 ca         1 7MR       0.098100
      7 OAU         -2.0590     0.0010     1.2070 os         1 7MR      -0.220200
      8 CAV         -2.6910    -0.8500     0.3550 ca         1 7MR       0.216100
      9 CAJ         -2.2600    -2.1720     0.2420 ca         1 7MR      -0.158000
     10 CAK         -2.9080    -3.0460    -0.6310 ca         1 7MR       0.026500
     11 CAW         -3.7720    -0.4030    -0.4050 ca         1 7MR      -0.158000
     12 CAX         -4.4200    -1.2760    -1.2780 ca         1 7MR       0.026500
     13 CAL         -3.9780    -2.5840    -1.3780 ca         1 7MR      -0.175500
     14 SAM         -4.8010    -3.6920    -2.4830 sy         1 7MR       0.815300
     15 OAY         -4.5780    -5.0360    -1.9810 o          1 7MR      -0.546800
     16 OAC         -6.1540    -3.2000    -2.6840 o          1 7MR      -0.546800
     17 CAN         -3.9280    -3.5020    -4.0060 c3         1 7MR      -0.066600
     18 CAO         -4.4530    -4.3730    -5.1610 c3         1 7MR      -0.189800
     19 CAP         -3.5700    -4.2650    -6.4100 c3         1 7MR       0.567900
     20 FBA         -3.6270    -3.0240    -6.9470 f          1 7MR      -0.169633
     21 FAF         -3.9430    -5.1370    -7.3730 f          1 7MR      -0.169633
     22 FAQ         -2.2720    -4.5200    -6.1260 f          1 7MR      -0.169633
     23 NAZ         -4.4210    -5.7830    -4.7380 nz         1 7MR       0.037400
     24 CAE         -5.9250    -4.0740    -5.5070 c          1 7MR       0.547100
     25 OAB         -6.8590    -4.6730    -4.9740 o          1 7MR      -0.511100
     26 NAD         -6.0910    -3.0950    -6.4580 ns         1 7MR      -0.018400
     27 OAA         -7.4170    -2.8000    -6.8040 oh         1 7MR      -0.418100
     28 HAI         -0.5480    -0.0000    -0.9340 ha         1 7MR       0.117000
     29 HAH          1.9360    -0.0000    -0.9380 ha         1 7MR       0.111000
     30 HAG          3.1750    -0.0000     1.2090 ha         1 7MR       0.114000
     31 HAR          1.9350     0.0000     3.3550 ha         1 7MR       0.111000
     32 HAS         -0.5500     0.0010     3.3500 ha         1 7MR       0.117000
     33 HAJ         -1.4210    -2.5200     0.8330 ha         1 7MR       0.137500
     34 HAK         -2.5780    -4.0740    -0.7240 ha         1 7MR       0.123500
     35 HAW         -4.1080     0.6230    -0.3170 ha         1 7MR       0.137500
     36 HAX         -5.2600    -0.9350    -1.8710 ha         1 7MR       0.123500
     37 HAN1        -2.8870    -3.7510    -3.8370 h1         1 7MR       0.107200
     38 HAN2        -3.9870    -2.4630    -4.3080 h1         1 7MR       0.107200
     39 HAZ1        -3.5190    -5.9980    -4.3600 hn         1 7MR       0.257800
     40 HAZ2        -4.6000    -6.3720    -5.5270 hn         1 7MR       0.257800
     41 HNAD        -5.3720    -2.4150    -6.6070 hn         1 7MR       0.189500
     42 HOAA        -7.4310    -2.3120    -7.6100 ho         1 7MR       0.424000
     43 HAZ3        -5.1300    -5.9420    -4.0500 hn         1 7MR       0.257800
@<TRIPOS>BOND
     1     1     2 ar  
     2     1     6 ar  
     3     1    28 1   
     4     2     3 ar  
     5     2    29 1   
     6     3     4 ar  
     7     3    30 1   
     8     4     5 ar  
     9     4    31 1   
    10     5     6 ar  
    11     5    32 1   
    12     6     7 1   
    13     7     8 1   
    14     8     9 ar  
    15     8    11 ar  
    16     9    10 ar  
    17     9    33 1   
    18    10    13 ar  
    19    10    34 1   
    20    11    12 ar  
    21    11    35 1   
    22    12    13 ar  
    23    12    36 1   
    24    13    14 1   
    25    14    15 2   
    26    14    16 2   
    27    14    17 1   
    28    17    18 1   
    29    17    37 1   
    30    17    38 1   
    31    18    19 1   
    32    18    23 1   
    33    18    24 1   
    34    19    20 1   
    35    19    21 1   
    36    19    22 1   
    37    23    39 1   
    38    23    40 1   
    39    23    43 1   
    40    24    25 2   
    41    24    26 1   
    42    26    27 1   
    43    26    41 1   
    44    27    42 1   
@<TRIPOS>SUBSTRUCTURE
     1 7MR         1 TEMP              0 ****  ****    0 ROOT
