@<TRIPOS>MOLECULE
molecule
   18    18     1     0     0
SMALL
bcc


@<TRIPOS>ATOM
      1 C01          0.0000     0.0000     0.0000 c3         1 7MU       0.102300
      2 N02          1.4650     0.0000     0.0000 ns         1 7MU      -0.567900
      3 C03          2.1390     0.0000     1.1670 c          1 7MU       0.573600
      4 O04          1.5330    -0.0010     2.2190 o          1 7MU      -0.604100
      5 C05          3.6210     0.0000     1.1660 ca         1 7MU       0.382800
      6 N06          4.2790     0.0010     0.0130 nb         1 7MU      -0.689000
      7 C07          5.5930     0.0010    -0.0340 ca         1 7MU       0.424200
      8 C08          6.3460     0.0000     1.1290 ca         1 7MU      -0.232300
      9 C09          5.7000    -0.0010     2.3570 ca         1 7MU       0.050400
     10 C10          4.3120     0.0050     2.3750 ca         1 7MU      -0.186300
     11 Cl           6.6060    -0.0030     3.8370 cl         1 7MU      -0.083400
     12 H1          -0.3610    -0.8850     0.5100 h1         1 7MU       0.043367
     13 H2          -0.3610     0.0000    -1.0210 h1         1 7MU       0.043367
     14 H3          -0.3610     0.8840     0.5110 h1         1 7MU       0.043367
     15 H4           1.9650    -0.0000    -0.8670 hn         1 7MU       0.333500
     16 H5           6.0940     0.0020    -0.9940 h4         1 7MU       0.032100
     17 H6           7.4280    -0.0020     1.0800 ha         1 7MU       0.154000
     18 H7           3.7740     0.0040     3.3150 ha         1 7MU       0.179000
@<TRIPOS>BOND
     1    11     9 1
     2     8     9 ar
     3     8     7 ar
     4     9    10 ar
     5     7     6 ar
     6    10     5 ar
     7     6     5 ar
     8     5     3 1
     9     4     3 2
    10     3     2 1
    11     2     1 1
    12     1    12 1
    13     1    13 1
    14     1    14 1
    15     2    15 1
    16     7    16 1
    17     8    17 1
    18    10    18 1
@<TRIPOS>SUBSTRUCTURE
     1 7MU         1 TEMP              0 ****  ****    0 ROOT
