@<TRIPOS>MOLECULE
7MU
   18    18     1     0     0
SMALL
bcc


@<TRIPOS>ATOM
      1 C01          0.0000     0.0000     0.0000 c3         1 7MU       0.082300
      2 N02          1.4650     0.0000     0.0000 ns         1 7MU      -0.171900
      3 C03          2.1390     0.0000     1.1670 c          1 7MU       0.481600
      4 O04          1.5330    -0.0010     2.2190 o          1 7MU      -0.650100
      5 C05          3.6210     0.0000     1.1660 ca         1 7MU       0.327800
      6 N06          4.2790     0.0010     0.0130 nb         1 7MU      -0.576000
      7 C07          5.5930     0.0010    -0.0340 ca         1 7MU       0.406200
      8 C08          6.3460     0.0000     1.1290 ca         1 7MU      -0.202300
      9 C09          5.7000    -0.0010     2.3570 ca         1 7MU      -0.025600
     10 C10          4.3120     0.0050     2.3750 ca         1 7MU      -0.150300
     11 Cl           6.6060    -0.0030     3.8370 cl         1 7MU       0.002600
     12 H1          -0.3610    -0.8850     0.5100 h1         1 7MU       0.010033
     13 H2          -0.3610     0.0000    -1.0210 h1         1 7MU       0.010033
     14 H3          -0.3610     0.8840     0.5110 h1         1 7MU       0.010033
     15 H4           1.9650    -0.0000    -0.8670 hn         1 7MU       0.188500
     16 H5           6.0940     0.0020    -0.9940 h4         1 7MU      -0.015900
     17 H6           7.4280    -0.0020     1.0800 ha         1 7MU       0.124000
     18 H7           3.7740     0.0040     3.3150 ha         1 7MU       0.148000
@<TRIPOS>BOND
     1     1     2 1   
     2     1    12 1   
     3     1    13 1   
     4     1    14 1   
     5     2     3 1   
     6     2    15 1   
     7     3     4 2   
     8     3     5 1   
     9     5     6 ar  
    10     5    10 ar  
    11     6     7 ar  
    12     7     8 ar  
    13     7    16 1   
    14     8     9 ar  
    15     8    17 1   
    16     9    10 ar  
    17     9    11 1   
    18    10    18 1   
@<TRIPOS>SUBSTRUCTURE
     1 7MU         1 TEMP              0 ****  ****    0 ROOT
