@<TRIPOS>MOLECULE
molecule
   46    49     1     0     0
SMALL
bcc


@<TRIPOS>ATOM
      1 C4           0.0000     0.0000     0.0000 c3         1 7MV       0.162300
      2 C5           3.7750     0.0000     0.0000 ca         1 7MV      -0.131500
      3 C6           4.0510     0.0000     1.3540 ca         1 7MV      -0.121000
      4 C1           1.4300    -0.0000     0.4780 ca         1 7MV      -0.118300
      5 C3           2.4640    -0.0010    -0.4390 ca         1 7MV      -0.112500
      6 C2           1.7060     0.0010     1.8320 ca         1 7MV      -0.112500
      7 C19         -3.1690     8.1670    -1.0680 c3         1 7MV       0.098600
      8 C18         -4.9870     6.5410    -1.6740 cc         1 7MV      -0.103100
      9 C20         -2.4240     8.5790    -2.3120 ca         1 7MV      -0.094300
     10 C23         -2.4060     9.6140    -4.4720 ca         1 7MV       0.143900
     11 C21         -3.0900     9.2370    -3.3290 ca         1 7MV      -0.142000
     12 C15         -1.0550     9.3320    -4.5950 ca         1 7MV      -0.006600
     13 C22         -1.0750     8.3020    -2.4330 ca         1 7MV      -0.116000
     14 C17         -5.1680     5.2130    -1.7340 cd         1 7MV      -0.182200
     15 C16         -1.7360     5.3760    -0.5860 ca         1 7MV      -0.154000
     16 C7           3.0160     0.0010     2.2710 ca         1 7MV      -0.131500
     17 C8          -0.3910     8.6780    -3.5730 ca         1 7MV      -0.096000
     18 C9          -1.7190     1.6270    -0.5770 c          1 7MV       0.678700
     19 C10         -2.1850     3.0200    -0.7330 ca         1 7MV      -0.185600
     20 C11         -1.3200     4.0850    -0.4450 ca         1 7MV      -0.087000
     21 C12         -3.4830     3.2740    -1.1680 ca         1 7MV      -0.004000
     22 C13         -3.9090     4.5920    -1.3120 ca         1 7MV      -0.118800
     23 C14         -3.0320     5.6530    -1.0190 ca         1 7MV      -0.016200
     24 Cl          -0.1960     9.8050    -6.0270 cl         1 7MV      -0.079400
     25 F           -3.0560    10.2570    -5.4670 f          1 7MV      -0.124900
     26 O           -2.4680     0.7040    -0.8270 o          1 7MV      -0.615100
     27 N1          -0.4620     1.3810    -0.1560 ns         1 7MV      -0.584900
     28 N2          -3.7170     6.8210    -1.2490 na         1 7MV      -0.068400
     29 H1          -0.6230    -0.5100     0.7250 h1         1 7MV       0.059200
     30 H2          -0.0630    -0.5110    -0.9530 h1         1 7MV       0.059200
     31 H3           4.5870    -0.0010    -0.7180 ha         1 7MV       0.132000
     32 H4           5.0790     0.0010     1.6980 ha         1 7MV       0.131000
     33 H5           2.2480    -0.0010    -1.5000 ha         1 7MV       0.135500
     34 H6           0.8940     0.0010     2.5490 ha         1 7MV       0.135500
     35 H7          -3.9770     8.8640    -0.8840 h1         1 7MV       0.069200
     36 H8          -2.4900     8.1700    -0.2240 h1         1 7MV       0.069200
     37 H9          -5.7370     7.2820    -1.9230 h4         1 7MV       0.166000
     38 H10         -4.1460     9.4570    -3.2320 ha         1 7MV       0.151000
     39 H11         -0.5530     7.7900    -1.6330 ha         1 7MV       0.143000
     40 H12         -6.0720     4.6970    -2.0360 ha         1 7MV       0.161000
     41 H13         -1.0570     6.1890    -0.3600 ha         1 7MV       0.122000
     42 H14          3.2320     0.0010     3.3330 ha         1 7MV       0.132000
     43 H15          0.6660     8.4590    -3.6680 ha         1 7MV       0.154000
     44 H16         -0.3110     3.8800    -0.1080 ha         1 7MV       0.125000
     45 H17         -4.1950     2.4620    -1.2520 ha         1 7MV       0.160000
     46 H18          0.1490     2.1410     0.0650 hn         1 7MV       0.317500
@<TRIPOS>BOND
     1    24    12 1
     2    25    10 1
     3    12    10 ar
     4    12    17 ar
     5    10    11 ar
     6    11     9 ar
     7    17    13 ar
     8    13     9 ar
     9     9     7 1
    10     7    28 1
    11     8    28 1
    12     8    14 2
    13    28    23 1
    14    14    22 1
    15    23    22 ar
    16    23    15 ar
    17    22    21 ar
    18    15    20 ar
    19    21    19 ar
    20    20    19 ar
    21    19    18 1
    22     2     3 ar
    23     2     5 ar
    24     3    16 ar
    25     5     4 ar
    26    16     6 ar
    27    27    18 1
    28    27     1 1
    29    18    26 2
    30     4     6 ar
    31     4     1 1
    32     1    29 1
    33     1    30 1
    34     2    31 1
    35     3    32 1
    36     5    33 1
    37     6    34 1
    38     7    35 1
    39     7    36 1
    40     8    37 1
    41    11    38 1
    42    13    39 1
    43    14    40 1
    44    15    41 1
    45    16    42 1
    46    17    43 1
    47    20    44 1
    48    21    45 1
    49    27    46 1
@<TRIPOS>SUBSTRUCTURE
     1 7MV         1 TEMP              0 ****  ****    0 ROOT
