@<TRIPOS>MOLECULE
7MV
   46    49     1     0     0
SMALL
bcc


@<TRIPOS>ATOM
      1 C4           0.0000     0.0000     0.0000 c3         1 7MV       0.113300
      2 C5           3.7750     0.0000     0.0000 ca         1 7MV      -0.103000
      3 C6           4.0510     0.0000     1.3540 ca         1 7MV      -0.094000
      4 C1           1.4300    -0.0000     0.4780 ca         1 7MV      -0.126300
      5 C3           2.4640    -0.0010    -0.4390 ca         1 7MV      -0.084500
      6 C2           1.7060     0.0010     1.8320 ca         1 7MV      -0.084500
      7 C19         -3.1690     8.1670    -1.0680 c3         1 7MV       0.020600
      8 C18         -4.9870     6.5410    -1.6740 cc         1 7MV      -0.259100
      9 C20         -2.4240     8.5790    -2.3120 ca         1 7MV      -0.105300
     10 C23         -2.4060     9.6140    -4.4720 ca         1 7MV       0.115900
     11 C21         -3.0900     9.2370    -3.3290 ca         1 7MV      -0.106000
     12 C15         -1.0550     9.3320    -4.5950 ca         1 7MV      -0.069600
     13 C22         -1.0750     8.3020    -2.4330 ca         1 7MV      -0.087000
     14 C17         -5.1680     5.2130    -1.7340 cd         1 7MV      -0.140200
     15 C16         -1.7360     5.3760    -0.5860 ca         1 7MV      -0.120000
     16 C7           3.0160     0.0010     2.2710 ca         1 7MV      -0.103000
     17 C8          -0.3910     8.6780    -3.5730 ca         1 7MV      -0.071000
     18 C9          -1.7190     1.6270    -0.5770 c          1 7MV       0.604700
     19 C10         -2.1850     3.0200    -0.7330 ca         1 7MV      -0.199600
     20 C11         -1.3200     4.0850    -0.4450 ca         1 7MV      -0.068000
     21 C12         -3.4830     3.2740    -1.1680 ca         1 7MV       0.042000
     22 C13         -3.9090     4.5920    -1.3120 ca         1 7MV      -0.123800
     23 C14         -3.0320     5.6530    -1.0190 ca         1 7MV      -0.190200
     24 Cl          -0.1960     9.8050    -6.0270 cl         1 7MV       0.014600
     25 F           -3.0560    10.2570    -5.4670 f          1 7MV      -0.118900
     26 O           -2.4680     0.7040    -0.8270 o          1 7MV      -0.656100
     27 N1          -0.4620     1.3810    -0.1560 ns         1 7MV      -0.205900
     28 N2          -3.7170     6.8210    -1.2490 na         1 7MV       0.398600
     29 H1          -0.6230    -0.5100     0.7250 h1         1 7MV       0.029200
     30 H2          -0.0630    -0.5110    -0.9530 h1         1 7MV       0.029200
     31 H3           4.5870    -0.0010    -0.7180 ha         1 7MV       0.104500
     32 H4           5.0790     0.0010     1.6980 ha         1 7MV       0.103000
     33 H5           2.2480    -0.0010    -1.5000 ha         1 7MV       0.108500
     34 H6           0.8940     0.0010     2.5490 ha         1 7MV       0.108500
     35 H7          -3.9770     8.8640    -0.8840 h1         1 7MV       0.038200
     36 H8          -2.4900     8.1700    -0.2240 h1         1 7MV       0.038200
     37 H9          -5.7370     7.2820    -1.9230 h4         1 7MV       0.141000
     38 H10         -4.1460     9.4570    -3.2320 ha         1 7MV       0.124000
     39 H11         -0.5530     7.7900    -1.6330 ha         1 7MV       0.116000
     40 H12         -6.0720     4.6970    -2.0360 ha         1 7MV       0.133000
     41 H13         -1.0570     6.1890    -0.3600 ha         1 7MV       0.100000
     42 H14          3.2320     0.0010     3.3330 ha         1 7MV       0.104500
     43 H15          0.6660     8.4590    -3.6680 ha         1 7MV       0.121000
     44 H16         -0.3110     3.8800    -0.1080 ha         1 7MV       0.099000
     45 H17         -4.1950     2.4620    -1.2520 ha         1 7MV       0.126000
     46 H18          0.1490     2.1410     0.0650 hn         1 7MV       0.182500
@<TRIPOS>BOND
     1     1     4 1   
     2     1    27 1   
     3     1    29 1   
     4     1    30 1   
     5     2     3 ar  
     6     2     5 ar  
     7     2    31 1   
     8     3    16 ar  
     9     3    32 1   
    10     4     5 ar  
    11     4     6 ar  
    12     5    33 1   
    13     6    16 ar  
    14     6    34 1   
    15     7     9 1   
    16     7    28 1   
    17     7    35 1   
    18     7    36 1   
    19     8    14 2   
    20     8    28 1   
    21     8    37 1   
    22     9    11 ar  
    23     9    13 ar  
    24    10    11 ar  
    25    10    12 ar  
    26    10    25 1   
    27    11    38 1   
    28    12    17 ar  
    29    12    24 1   
    30    13    17 ar  
    31    13    39 1   
    32    14    22 1   
    33    14    40 1   
    34    15    20 ar  
    35    15    23 ar  
    36    15    41 1   
    37    16    42 1   
    38    17    43 1   
    39    18    19 1   
    40    18    26 2   
    41    18    27 1   
    42    19    20 ar  
    43    19    21 ar  
    44    20    44 1   
    45    21    22 ar  
    46    21    45 1   
    47    22    23 ar  
    48    23    28 1   
    49    27    46 1   
@<TRIPOS>SUBSTRUCTURE
     1 7MV         1 TEMP              0 ****  ****    0 ROOT
