@<TRIPOS>MOLECULE
molecule
   24    24     1     0     0
SMALL
bcc


@<TRIPOS>ATOM
      1 C01          0.0000     0.0000     0.0000 c3         1 7MW      -0.081100
      2 C02          1.5290     0.0000     0.0000 c3         1 7MW      -0.180400
      3 C03          2.0320     0.0000     1.4210 c          1 7MW       0.604700
      4 O04          1.2440    -0.0000     2.3420 o          1 7MW      -0.528100
      5 C05          3.4740    -0.0010     1.6880 cc         1 7MW      -0.275600
      6 C06          4.4890     0.0040     0.7430 cd         1 7MW      -0.089300
      7 N07          5.6650     0.0010     1.3860 na         1 7MW      -0.122100
      8 C08          5.4400    -0.0060     2.7460 cd         1 7MW      -0.190900
      9 C09          4.0940    -0.0010     2.9600 cc         1 7MW      -0.047000
     10 C10          6.4750    -0.0100     3.7860 c          1 7MW       0.672700
     11 O11          6.1560    -0.0170     4.9600 o          1 7MW      -0.533000
     12 O12          7.7780    -0.0080     3.4420 os         1 7MW      -0.445900
     13 C13          8.7470    -0.0140     4.5240 c3         1 7MW       0.143700
     14 H1          -0.3610     0.8840     0.5110 hc         1 7MW       0.042700
     15 H2          -0.3610    -0.8850     0.5110 hc         1 7MW       0.042700
     16 H3          -0.3610     0.0000    -1.0210 hc         1 7MW       0.042700
     17 H4           1.8900    -0.8840    -0.5110 hc         1 7MW       0.058700
     18 H5           1.8900     0.8840    -0.5110 hc         1 7MW       0.058700
     19 H6           4.3540     0.0100    -0.3320 h4         1 7MW       0.175000
     20 H7           6.5650     0.0020     0.9480 hn         1 7MW       0.311700
     21 H8           3.5940    -0.0050     3.9210 ha         1 7MW       0.187000
     22 H9           9.7490    -0.0110     4.1120 h1         1 7MW       0.051367
     23 H10          8.6070     0.8670     5.1390 h1         1 7MW       0.051367
     24 H11          8.6070    -0.9020     5.1280 h1         1 7MW       0.051367
@<TRIPOS>BOND
     1     1     2 1   
     2     4     3 2   
     3     2     3 1   
     4     3     5 1   
     5     5     9 1   
     6     5     6 2   
     7     9     8 2   
     8     6     7 1   
     9     8     7 1   
    10     8    10 1   
    11    11    10 2   
    12    10    12 1   
    13    12    13 1   
    14     1    14 1   
    15     1    15 1   
    16     1    16 1   
    17     2    17 1   
    18     2    18 1   
    19     6    19 1   
    20     7    20 1   
    21     9    21 1   
    22    13    22 1   
    23    13    23 1   
    24    13    24 1   
@<TRIPOS>SUBSTRUCTURE
     1 7MW         1 TEMP              0 ****  ****    0 ROOT
