@<TRIPOS>MOLECULE
7MX
   24    24     1     0     0
SMALL
bcc


@<TRIPOS>ATOM
      1 C01          0.0000     0.0000     0.0000 c3         1 7MX      -0.004100
      2 C02          1.5300     0.0000     0.0000 c3         1 7MX       0.224400
      3 O03          2.0150     0.0000     1.3680 os         1 7MX      -0.405900
      4 C04          3.3510     0.0010     1.5450 c          1 7MX       0.740300
      5 O05          4.0910     0.0020     0.5810 o          1 7MX      -0.603000
      6 C06          3.9140     0.0010     2.9050 cc         1 7MX      -0.266200
      7 C07          5.2820     0.0020     3.0930 cd         1 7MX      -0.052400
      8 N08          5.8010     0.0020     4.3340 n          1 7MX       0.134000
      9 C09          7.2550     0.0030     4.5070 c3         1 7MX       0.043300
     10 C10          5.0050     0.0020     5.4200 c          1 7MX       0.590700
     11 O11          5.5020     0.0040     6.5340 o          1 7MX      -0.681500
     12 C12          3.6060     0.0030     5.2800 cd         1 7MX      -0.253200
     13 C13          3.0560     0.0060     4.0350 cc         1 7MX       0.060400
     14 Cl           1.3320     0.0070     3.8320 cl         1 7MX       0.026600
     15 H1          -0.3610    -0.8840     0.5110 hc         1 7MX       0.011033
     16 H2          -0.3610    -0.0000    -1.0210 hc         1 7MX       0.011033
     17 H3          -0.3610     0.8850     0.5100 hc         1 7MX       0.011033
     18 H4           1.8900     0.8840    -0.5110 h1         1 7MX       0.009700
     19 H5           1.8900    -0.8840    -0.5110 h1         1 7MX       0.009700
     20 H6           5.9420     0.0010     2.2340 h4         1 7MX       0.153000
     21 H7           7.7350     0.0030     3.5360 h1         1 7MX       0.030367
     22 H8           7.5530     0.8870     5.0570 h1         1 7MX       0.030367
     23 H9           7.5540    -0.8820     5.0570 h1         1 7MX       0.030367
     24 H10          2.9700     0.0040     6.1570 ha         1 7MX       0.151000
@<TRIPOS>BOND
     1     1     2 1   
     2     1    15 1   
     3     1    16 1   
     4     1    17 1   
     5     2     3 1   
     6     2    18 1   
     7     2    19 1   
     8     3     4 1   
     9     4     5 2   
    10     4     6 1   
    11     6     7 2   
    12     6    13 1   
    13     7     8 1   
    14     7    20 1   
    15     8     9 1   
    16     8    10 1   
    17     9    21 1   
    18     9    22 1   
    19     9    23 1   
    20    10    11 2   
    21    10    12 1   
    22    12    13 2   
    23    12    24 1   
    24    13    14 1   
@<TRIPOS>SUBSTRUCTURE
     1 7MX         1 TEMP              0 ****  ****    0 ROOT
