@<TRIPOS>MOLECULE
molecule
   66    71     1     0     0
SMALL
bcc


@<TRIPOS>ATOM
      1 C4           0.0000     0.0000     0.0000 ca         1 7MY       0.629200
      2 C5           1.3940     0.0000     0.0000 ca         1 7MY      -0.446900
      3 C6           2.0750     0.0000     1.1940 ca         1 7MY       0.539200
      4 N1           1.3830    -0.0010     2.3270 nb         1 7MY      -0.804000
      5 N3          -0.6280    -0.0010     1.1750 nb         1 7MY      -0.820000
      6 CAQ         -2.4030    -0.3670     8.3240 c3         1 7MY       0.137300
      7 CAM         -3.4090     0.0590     9.4150 c3         1 7MY      -0.085400
      8 CAN         -2.7550    -0.3590    10.7480 c3         1 7MY      -0.085400
      9 CAR         -1.4090    -1.0030    10.3510 c3         1 7MY       0.137300
     10 NBG         -1.0920    -0.4180     9.0230 n3         1 7MY      -0.693600
     11 CAX          0.4640    -0.5640     7.0170 ca         1 7MY      -0.065300
     12 CAL         -0.2560    -0.6580     5.8420 ca         1 7MY      -0.150000
     13 CAG          1.5970     0.2290     7.0750 ca         1 7MY      -0.121000
     14 CAE          2.0150     0.9260     5.9560 ca         1 7MY      -0.120000
     15 CAI          1.3020     0.8320     4.7760 ca         1 7MY      -0.110000
     16 CAZ          0.1590     0.0460     4.7180 ca         1 7MY       0.153600
     17 C2           0.0580    -0.0000     2.3060 ca         1 7MY       0.968900
     18 CBI          1.8190    -0.0000    -1.4470 c3         1 7MY      -0.085700
     19 CAA          2.6280    -1.2580    -1.7700 c3         1 7MY      -0.068600
     20 CAB          2.6310     1.2570    -1.7680 c3         1 7MY      -0.068600
     21 CAW          0.5100     0.0000    -2.2100 c          1 7MY       0.724500
     22 OAC          0.3790     0.0010    -3.4160 o          1 7MY      -0.591500
     23 NBH         -0.4780    -0.0040    -1.2990 n          1 7MY      -0.435300
     24 CBF         -1.9020    -0.0110    -1.6430 c3         1 7MY       0.160000
     25 CAP         -2.5890    -1.2660    -1.0620 c3         1 7MY      -0.092400
     26 CAO         -3.1030    -0.7600     0.3020 c3         1 7MY      -0.041100
     27 CBC         -3.2950     0.7310     0.1260 ca         1 7MY      -0.062300
     28 CBB         -2.6050     1.1620    -0.9920 ca         1 7MY      -0.110300
     29 CAJ         -2.6380     2.4990    -1.3500 ca         1 7MY      -0.108000
     30 CAF         -3.3560     3.4070    -0.5950 ca         1 7MY      -0.121000
     31 CAH         -4.0460     2.9810     0.5230 ca         1 7MY      -0.164000
     32 CAY         -4.0180     1.6420     0.8840 ca         1 7MY       0.112100
     33 OAD         -4.6980     1.2220     1.9840 oh         1 7MY      -0.518100
     34 H1           3.1580    -0.0010     1.2110 h4         1 7MY       0.032100
     35 H3          -2.3770     0.3680     7.5290 h1         1 7MY       0.040200
     36 H4          -4.3500    -0.4600     9.2800 hc         1 7MY       0.047450
     37 H5          -3.5570     1.1320     9.3900 hc         1 7MY       0.047450
     38 H6          -2.5850     0.5110    11.3710 hc         1 7MY       0.047450
     39 H7          -3.3780    -1.0810    11.2610 hc         1 7MY       0.047450
     40 H8          -1.5150    -2.0780    10.2730 h1         1 7MY       0.040200
     41 H9          -0.6410    -0.7430    11.0690 h1         1 7MY       0.040200
     42 H13         -1.1470    -1.2720     5.8000 ha         1 7MY       0.130000
     43 H14          2.1570     0.3040     7.9990 ha         1 7MY       0.133000
     44 H15          2.9040     1.5420     6.0040 ha         1 7MY       0.132000
     45 H16          1.6280     1.3800     3.9000 ha         1 7MY       0.157000
     46 H18          2.8380    -1.2900    -2.8320 hc         1 7MY       0.046533
     47 H19          2.0590    -2.1360    -1.4870 hc         1 7MY       0.046533
     48 H20          3.5600    -1.2390    -1.2180 hc         1 7MY       0.046533
     49 H21          2.0760     2.1340    -1.4600 hc         1 7MY       0.046533
     50 H22          3.5750     1.2220    -1.2380 hc         1 7MY       0.046533
     51 H23          2.8170     1.3040    -2.8340 hc         1 7MY       0.046533
     52 H24         -2.0350     0.0240    -2.7180 h1         1 7MY       0.093700
     53 H25         -3.4220    -1.5580    -1.6890 hc         1 7MY       0.061700
     54 H26         -1.8600    -2.0540    -0.9150 hc         1 7MY       0.061700
     55 H27         -4.0560    -1.2240     0.5260 hc         1 7MY       0.075200
     56 H28         -2.3550    -0.9420     1.0640 hc         1 7MY       0.075200
     57 H29         -2.0970     2.8360    -2.2270 ha         1 7MY       0.133000
     58 H30         -3.3770     4.4520    -0.8790 ha         1 7MY       0.134000
     59 H31         -4.6100     3.6910     1.1150 ha         1 7MY       0.136000
     60 H32         -5.6130     1.4240     1.8830 ho         1 7MY       0.417000
     61 NAV         -0.6310    -0.0010     3.5080 nu         1 7MY      -0.764300
     62 CAS          0.0130    -1.3210     8.2390 c3         1 7MY       0.196100
     63 H2          -2.6610    -1.3450     7.9360 h1         1 7MY       0.040200
     64 H11          0.8430    -1.5320     8.9020 h1         1 7MY       0.047700
     65 H12         -0.4410    -2.2520     7.9210 h1         1 7MY       0.047700
     66 H17         -1.6290    -0.0620     3.5640 hn         1 7MY       0.477800
@<TRIPOS>BOND
     1    20    18 1   
     2    30    31 ar  
     3    30    29 ar  
     4     3     4 ar  
     5     3     2 ar  
     6     4    17 ar  
     7    31    32 ar  
     8    29    28 ar  
     9     2    18 1   
    10     2     1 ar  
    11    18    19 1   
    12    18    21 1   
    13    17    61 1   
    14    17     5 ar  
    15    61    16 1   
    16    16    15 ar  
    17    16    12 ar  
    18     1     5 ar  
    19     1    23 1   
    20    15    14 ar  
    21    21    23 1   
    22    21    22 2   
    23    12    11 ar  
    24    32    33 1   
    25    32    27 ar  
    26    28    27 ar  
    27    28    24 1   
    28    23    24 1   
    29    14    13 ar  
    30    11    13 ar  
    31    11    62 1   
    32    27    26 1   
    33    62    10 1   
    34    24    25 1   
    35    25    26 1   
    36    10     9 1   
    37    10     6 1   
    38     9     8 1   
    39     6     7 1   
    40     8     7 1   
    41     3    34 1   
    42     6    63 1   
    43     6    35 1   
    44     7    36 1   
    45     7    37 1   
    46     8    38 1   
    47     8    39 1   
    48     9    40 1   
    49     9    41 1   
    50    62    64 1   
    51    62    65 1   
    52    12    42 1   
    53    13    43 1   
    54    14    44 1   
    55    15    45 1   
    56    61    66 1   
    57    19    46 1   
    58    19    47 1   
    59    19    48 1   
    60    20    49 1   
    61    20    50 1   
    62    20    51 1   
    63    24    52 1   
    64    25    53 1   
    65    25    54 1   
    66    26    55 1   
    67    26    56 1   
    68    29    57 1   
    69    30    58 1   
    70    31    59 1   
    71    33    60 1   
@<TRIPOS>SUBSTRUCTURE
     1 7MY         1 TEMP              0 ****  ****    0 ROOT
