@<TRIPOS>MOLECULE
7MY
   66    71     1     0     0
SMALL
bcc


@<TRIPOS>ATOM
      1 C4           0.0000     0.0000     0.0000 ca         1 7MY       0.450200
      2 C5           1.3940     0.0000     0.0000 ca         1 7MY      -0.463900
      3 C6           2.0750     0.0000     1.1940 ca         1 7MY       0.547200
      4 N1           1.3830    -0.0010     2.3270 nb         1 7MY      -0.713000
      5 N3          -0.6280    -0.0010     1.1750 nb         1 7MY      -0.698000
      6 CAQ         -2.4030    -0.3670     8.3240 c3         1 7MY       0.156800
      7 CAM         -3.4090     0.0590     9.4150 c3         1 7MY      -0.027400
      8 CAN         -2.7550    -0.3590    10.7480 c3         1 7MY      -0.027400
      9 CAR         -1.4090    -1.0030    10.3510 c3         1 7MY       0.156800
     10 NBG         -1.0920    -0.4180     9.0230 n3         1 7MY      -0.567600
     11 CAX          0.4640    -0.5640     7.0170 ca         1 7MY      -0.078300
     12 CAL         -0.2560    -0.6580     5.8420 ca         1 7MY      -0.121000
     13 CAG          1.5970     0.2290     7.0750 ca         1 7MY      -0.089000
     14 CAE          2.0150     0.9260     5.9560 ca         1 7MY      -0.090000
     15 CAI          1.3020     0.8320     4.7760 ca         1 7MY      -0.090000
     16 CAZ          0.1590     0.0460     4.7180 ca         1 7MY      -0.002400
     17 C2           0.0580    -0.0000     2.3060 ca         1 7MY       0.733900
     18 CBI          1.8190    -0.0000    -1.4470 c3         1 7MY      -0.068700
     19 CAA          2.6280    -1.2580    -1.7700 c3         1 7MY       0.025900
     20 CAB          2.6310     1.2570    -1.7680 c3         1 7MY       0.025900
     21 CAW          0.5100     0.0000    -2.2100 c          1 7MY       0.631500
     22 OAC          0.3790     0.0010    -3.4160 o          1 7MY      -0.631500
     23 NBH         -0.4780    -0.0040    -1.2990 n          1 7MY      -0.044300
     24 CBF         -1.9020    -0.0110    -1.6430 c3         1 7MY       0.076000
     25 CAP         -2.5890    -1.2660    -1.0620 c3         1 7MY      -0.034400
     26 CAO         -3.1030    -0.7600     0.3020 c3         1 7MY       0.007900
     27 CBC         -3.2950     0.7310     0.1260 ca         1 7MY      -0.077300
     28 CBB         -2.6050     1.1620    -0.9920 ca         1 7MY      -0.118300
     29 CAJ         -2.6380     2.4990    -1.3500 ca         1 7MY      -0.085000
     30 CAF         -3.3560     3.4070    -0.5950 ca         1 7MY      -0.088000
     31 CAH         -4.0460     2.9810     0.5230 ca         1 7MY      -0.151000
     32 CAY         -4.0180     1.6420     0.8840 ca         1 7MY       0.136100
     33 OAD         -4.6980     1.2220     1.9840 oh         1 7MY      -0.496100
     34 H1           3.1580    -0.0010     1.2110 h4         1 7MY      -0.016900
     35 H3          -2.3770     0.3680     7.5290 h1         1 7MY       0.010950
     36 H4          -4.3500    -0.4600     9.2800 hc         1 7MY       0.017450
     37 H5          -3.5570     1.1320     9.3900 hc         1 7MY       0.017450
     38 H6          -2.5850     0.5110    11.3710 hc         1 7MY       0.017450
     39 H7          -3.3780    -1.0810    11.2610 hc         1 7MY       0.017450
     40 H8          -1.5150    -2.0780    10.2730 h1         1 7MY       0.010950
     41 H9          -0.6410    -0.7430    11.0690 h1         1 7MY       0.010950
     42 H13         -1.1470    -1.2720     5.8000 ha         1 7MY       0.108000
     43 H14          2.1570     0.3040     7.9990 ha         1 7MY       0.107000
     44 H15          2.9040     1.5420     6.0040 ha         1 7MY       0.103000
     45 H16          1.6280     1.3800     3.9000 ha         1 7MY       0.133000
     46 H18          2.8380    -1.2900    -2.8320 hc         1 7MY       0.012200
     47 H19          2.0590    -2.1360    -1.4870 hc         1 7MY       0.012200
     48 H20          3.5600    -1.2390    -1.2180 hc         1 7MY       0.012200
     49 H21          2.0760     2.1340    -1.4600 hc         1 7MY       0.012200
     50 H22          3.5750     1.2220    -1.2380 hc         1 7MY       0.012200
     51 H23          2.8170     1.3040    -2.8340 hc         1 7MY       0.012200
     52 H24         -2.0350     0.0240    -2.7180 h1         1 7MY       0.064700
     53 H25         -3.4220    -1.5580    -1.6890 hc         1 7MY       0.029200
     54 H26         -1.8600    -2.0540    -0.9150 hc         1 7MY       0.029200
     55 H27         -4.0560    -1.2240     0.5260 hc         1 7MY       0.046200
     56 H28         -2.3550    -0.9420     1.0640 hc         1 7MY       0.046200
     57 H29         -2.0970     2.8360    -2.2270 ha         1 7MY       0.106000
     58 H30         -3.3770     4.4520    -0.8790 ha         1 7MY       0.105000
     59 H31         -4.6100     3.6910     1.1150 ha         1 7MY       0.111000
     60 H32         -5.6130     1.4240     1.8830 ho         1 7MY       0.400000
     61 NAV         -0.6310    -0.0010     3.5080 nu         1 7MY      -0.305300
     62 CAS          0.0130    -1.3210     8.2390 c3         1 7MY       0.229100
     63 H2          -2.6610    -1.3450     7.9360 h1         1 7MY       0.010950
     64 H11          0.8430    -1.5320     8.9020 h1         1 7MY       0.013700
     65 H12         -0.4410    -2.2520     7.9210 h1         1 7MY       0.013700
     66 H17         -1.6290    -0.0620     3.5640 hn         1 7MY       0.305800
@<TRIPOS>BOND
     1     1     2 ar  
     2     1     5 ar  
     3     1    23 1   
     4     2     3 ar  
     5     2    18 1   
     6     3     4 ar  
     7     3    34 1   
     8     4    17 ar  
     9     5    17 ar  
    10     6     7 1   
    11     6    10 1   
    12     6    35 1   
    13     6    63 1   
    14     7     8 1   
    15     7    36 1   
    16     7    37 1   
    17     8     9 1   
    18     8    38 1   
    19     8    39 1   
    20     9    10 1   
    21     9    40 1   
    22     9    41 1   
    23    10    62 1   
    24    11    12 ar  
    25    11    13 ar  
    26    11    62 1   
    27    12    16 ar  
    28    12    42 1   
    29    13    14 ar  
    30    13    43 1   
    31    14    15 ar  
    32    14    44 1   
    33    15    16 ar  
    34    15    45 1   
    35    16    61 1   
    36    17    61 1   
    37    18    19 1   
    38    18    20 1   
    39    18    21 1   
    40    19    46 1   
    41    19    47 1   
    42    19    48 1   
    43    20    49 1   
    44    20    50 1   
    45    20    51 1   
    46    21    22 2   
    47    21    23 1   
    48    23    24 1   
    49    24    25 1   
    50    24    28 1   
    51    24    52 1   
    52    25    26 1   
    53    25    53 1   
    54    25    54 1   
    55    26    27 1   
    56    26    55 1   
    57    26    56 1   
    58    27    28 ar  
    59    27    32 ar  
    60    28    29 ar  
    61    29    30 ar  
    62    29    57 1   
    63    30    31 ar  
    64    30    58 1   
    65    31    32 ar  
    66    31    59 1   
    67    32    33 1   
    68    33    60 1   
    69    61    66 1   
    70    62    64 1   
    71    62    65 1   
@<TRIPOS>SUBSTRUCTURE
     1 7MY         1 TEMP              0 ****  ****    0 ROOT
