@<TRIPOS>MOLECULE
molecule
   19    19     1     0     0
SMALL
bcc


@<TRIPOS>ATOM
      1 O3           0.0000     0.0000     0.0000 o          1 7N0      -0.456100
      2 C4           1.2080     0.0000     0.0000 c          1 7N0       0.576100
      3 C5           2.1080     0.0000     1.2230 c3         1 7N0      -0.205400
      4 C6           3.4420     0.6060     0.7200 c3         1 7N0      -0.084400
      5 C7           3.5590     0.0090    -0.7060 c3         1 7N0      -0.088400
      6 C3           2.1050    -0.0060    -1.2200 c3         1 7N0      -0.155700
      7 C2           1.8540    -1.2690    -2.0470 c3         1 7N0      -0.172400
      8 C1           0.4620    -1.2230    -2.6230 c          1 7N0       0.883600
      9 O2          -0.2560    -0.2780    -2.3950 o          1 7N0      -0.842800
     10 O1           0.0180    -2.2320    -3.3880 o          1 7N0      -0.842800
     11 H1           2.2630    -1.0120     1.5760 hc         1 7N0       0.052200
     12 H2           1.6830     0.6200     2.0030 hc         1 7N0       0.052200
     13 H3           3.3820     1.6870     0.6800 hc         1 7N0       0.031700
     14 H4           4.2690     0.2810     1.3400 hc         1 7N0       0.031700
     15 H5           3.9570    -0.9970    -0.6640 hc         1 7N0       0.036200
     16 H6           4.1760     0.6430    -1.3320 hc         1 7N0       0.036200
     17 H7           1.9180     0.8770    -1.8190 hc         1 7N0       0.084700
     18 H8           1.9540    -2.1420    -1.4140 hc         1 7N0       0.031700
     19 H9           2.5760    -1.3230    -2.8530 hc         1 7N0       0.031700
@<TRIPOS>BOND
     1     1     2 2
     2     3     2 1
     3     3     4 1
     4     2     6 1
     5     9     8 1
     6    10     8 1
     7     8     7 1
     8     4     5 1
     9     6     7 1
    10     6     5 1
    11     3    11 1
    12     3    12 1
    13     4    13 1
    14     4    14 1
    15     5    15 1
    16     5    16 1
    17     6    17 1
    18     7    18 1
    19     7    19 1
@<TRIPOS>SUBSTRUCTURE
     1 7N0         1 TEMP              0 ****  ****    0 ROOT
