@<TRIPOS>MOLECULE
molecule
   47    50     1     0     0
SMALL
bcc


@<TRIPOS>ATOM
      1 CAH          0.0000     0.0000     0.0000 ca         1 7N1       0.161100
      2 CAI          1.4110     0.0000     0.0000 ca         1 7N1      -0.049000
      3 CAJ          2.1050     0.0000     1.2360 ca         1 7N1       0.006000
      4 CAK          1.3760     0.0000     2.4400 ca         1 7N1      -0.179000
      5 CAL          0.0140     0.0000     2.4090 ca         1 7N1       0.171900
      6 CAM         -0.6770     0.0010     1.1980 ca         1 7N1      -0.252000
      7 CAY          2.1350    -0.0020    -1.2040 ca         1 7N1      -0.093000
      8 CAZ          3.4920    -0.0030    -1.1820 ca         1 7N1      -0.106000
      9 CBA          4.1930    -0.0040     0.0370 ca         1 7N1       0.011000
     10 CBB          3.5080    -0.0010     1.2410 ca         1 7N1      -0.083000
     11 CBC          5.6250    -0.0050     0.0340 cg         1 7N1       0.227800
     12 NBD          6.7610    -0.0260     0.0300 n1         1 7N1      -0.340800
     13 C0P         -7.8190     3.2150    -0.4590 cc         1 7N1      -0.087400
     14 C00         -4.0060     1.4960    -1.0060 ca         1 7N1      -0.238000
     15 C0D         -3.0070     3.7410    -0.0550 c3         1 7N1      -0.025600
     16 C0E         -3.3590     3.5720     1.3550 c3         1 7N1       0.075000
     17 C0K         -8.1990     1.8220     1.7150 c          1 7N1       0.771500
     18 C0N         -9.9310     1.5210    -0.2790 c          1 7N1       0.766700
     19 C0O         -9.0270     2.6260    -1.1020 cd         1 7N1      -0.376200
     20 N0H         -7.3630     2.8740     0.8940 n          1 7N1      -0.461000
     21 N0M         -9.5970     1.1830     0.8860 ns         1 7N1      -0.698500
     22 O0A         -0.6830     0.0060    -1.1730 os         1 7N1      -0.227200
     23 O0S        -10.6590     1.0350    -0.9190 o          1 7N1      -0.635500
     24 C01         -4.7950     0.3590    -1.0170 ca         1 7N1       0.209900
     25 C02         -4.2080    -0.8930    -1.0810 ca         1 7N1      -0.139000
     26 C03         -2.8320    -1.0120    -1.1330 ca         1 7N1      -0.098000
     27 C04         -2.0380     0.1220    -1.1220 ca         1 7N1       0.130100
     28 C05         -2.6270     1.3820    -1.0580 ca         1 7N1      -0.003900
     29 F01         -0.6780     0.0000     3.5700 f          1 7N1      -0.130900
     30 H1           1.8980     0.0000     3.3900 ha         1 7N1       0.160000
     31 H2          -1.7610     0.0010     1.2080 ha         1 7N1       0.151000
     32 H3           1.6100    -0.0160    -2.1520 ha         1 7N1       0.154000
     33 H4           4.0490    -0.0040    -2.1120 ha         1 7N1       0.149000
     34 H5           4.0460    -0.0010     2.1810 ha         1 7N1       0.155000
     35 H6          -7.2430     3.9380    -1.0250 h4         1 7N1       0.110000
     36 H7          -4.4670     2.4750    -0.9560 ha         1 7N1       0.170000
     37 H8          -2.7740     2.8030    -0.5440 h1         1 7N1       0.245200
     38 H9          -3.7240     4.3470    -0.5950 h1         1 7N1       0.245200
     39 H10         -3.0010     2.6570     1.8100 h1         1 7N1       0.130700
     40 H11         -3.3340     4.4800     1.9450 h1         1 7N1       0.130700
     41 H12         -9.3180     2.9340    -2.0980 ha         1 7N1       0.132000
     42 H13        -10.1290     0.4680     1.3410 hn         1 7N1       0.289500
     43 H14         -4.8280    -1.7820    -1.0900 ha         1 7N1       0.183000
     44 H15         -2.3750    -1.9920    -1.1830 ha         1 7N1       0.175000
     45 F02         -6.1150     0.2410    -1.0320 f          1 7N1      -0.072900
     46 O0B         -2.1470     2.3040    -0.0150 os         1 7N1      -0.242900
     47 O0Q         -7.9000     1.6170     2.8470 o          1 7N1      -0.570500
@<TRIPOS>BOND
     1    45    24 1   
     2    24    14 ar  
     3    24    25 ar  
     4    14    28 ar  
     5    25    26 ar  
     6    28    46 1   
     7    28    27 ar  
     8    26    27 ar  
     9    15    46 1   
    10    15    16 1   
    11    47    17 2   
    12    27    22 1   
    13    16    20 1   
    14    17    20 1   
    15    17    21 1   
    16    20    13 1   
    17    21    18 1   
    18    22     1 1   
    19     6     1 ar  
    20     6     5 ar  
    21     1     2 ar  
    22    13    19 2   
    23    18    23 2   
    24    18    19 1   
    25    29     5 1   
    26     5     4 ar  
    27     2     7 ar  
    28     2     3 ar  
    29     7     8 ar  
    30     4     3 ar  
    31     3    10 ar  
    32     8     9 ar  
    33    10     9 ar  
    34     9    11 1   
    35    11    12 3   
    36     4    30 1   
    37     6    31 1   
    38     7    32 1   
    39     8    33 1   
    40    10    34 1   
    41    13    35 1   
    42    14    36 1   
    43    15    37 1   
    44    15    38 1   
    45    16    39 1   
    46    16    40 1   
    47    19    41 1   
    48    21    42 1   
    49    25    43 1   
    50    26    44 1   
@<TRIPOS>SUBSTRUCTURE
     1 7N1         1 TEMP              0 ****  ****    0 ROOT
