@<TRIPOS>MOLECULE
molecule
   48    52     1     0     0
SMALL
bcc


@<TRIPOS>ATOM
      1 N01          0.0000     0.0000     0.0000 na         1 7N2       0.037800
      2 C02          1.3780     0.0000     0.0000 cc         1 7N2      -0.132600
      3 C03          1.7980     0.0000     1.2700 cd         1 7N2      -0.163000
      4 C04          0.6500    -0.0160     2.0930 cd         1 7N2      -0.205000
      5 C05         -0.4320    -0.0220     1.2840 cc         1 7N2      -0.128300
      6 C06         -0.7270     0.0100    -1.2010 ca         1 7N2      -0.005200
      7 C07         -2.0880    -0.2200    -1.2300 ca         1 7N2      -0.125000
      8 C08         -2.7590    -0.2160    -2.4410 ca         1 7N2      -0.121000
      9 C09         -2.0700     0.0250    -3.6150 ca         1 7N2      -0.106000
     10 C10         -0.7110     0.2740    -3.5910 ca         1 7N2      -0.136000
     11 C11         -0.0300     0.2780    -2.3840 ca         1 7N2       0.136600
     12 N12          1.3410     0.5580    -2.3420 nh         1 7N2      -0.663900
     13 C13          2.5550    -1.4320    -1.6290 ca         1 7N2      -0.245600
     14 C14          4.1310    -3.2160    -1.7110 ca         1 7N2      -0.257300
     15 C15          3.8320    -1.9060    -1.3710 ca         1 7N2      -0.082000
     16 C16          1.6260    -2.2770    -2.2070 ca         1 7N2       0.442200
     17 N17          1.9440    -3.5190    -2.5120 nb         1 7N2      -0.685000
     18 C18          3.1480    -4.0040    -2.2810 ca         1 7N2       0.426200
     19 C19          2.1820    -0.0150    -1.2780 c3         1 7N2       0.371100
     20 S20          2.0190     1.5370    -3.4930 sy         1 7N2       1.426200
     21 O21          0.9560     2.3000    -4.0470 o          1 7N2      -0.617800
     22 O22          3.1670     2.1230    -2.8950 o          1 7N2      -0.617800
     23 C23          2.6070     0.4930    -4.7840 ca         1 7N2      -0.322500
     24 C24          3.8480    -0.1090    -4.6760 ca         1 7N2       0.002000
     25 C25          4.3090    -0.9270    -5.6900 ca         1 7N2      -0.151000
     26 C26          3.5300    -1.1460    -6.8110 ca         1 7N2      -0.028000
     27 C27          2.2920    -0.5450    -6.9190 ca         1 7N2      -0.199300
     28 C28          1.8270     0.2710    -5.9040 ca         1 7N2       0.017000
     29 C29          1.4430    -0.7820    -8.1410 c3         1 7N2       0.675200
     30 F30          1.1930     0.4380    -8.7800 f          1 7N2      -0.220300
     31 F31          2.1180    -1.6380    -9.0190 f          1 7N2      -0.220300
     32 F32          0.2300    -1.3660    -7.7620 f          1 7N2      -0.220300
     33 H1           2.8280     0.0080     1.6050 ha         1 7N2       0.152000
     34 H2           0.6400    -0.1370     3.1700 ha         1 7N2       0.155000
     35 H3          -1.4660    -0.0340     1.6060 h4         1 7N2       0.170000
     36 H4          -2.6280    -0.4090    -0.3100 ha         1 7N2       0.144000
     37 H5          -3.8240    -0.4110    -2.4700 ha         1 7N2       0.141000
     38 H6          -2.6000     0.0270    -4.5600 ha         1 7N2       0.143000
     39 H7          -0.1780     0.4620    -4.5150 ha         1 7N2       0.145000
     40 H8           5.1180    -3.6190    -1.5240 ha         1 7N2       0.141000
     41 H9           4.5810    -1.2660    -0.9210 ha         1 7N2       0.141000
     42 H10          0.6260    -1.9140    -2.4110 h4         1 7N2       0.036100
     43 H11          3.3730    -5.0300    -2.5480 h4         1 7N2       0.025100
     44 H12          3.0750     0.5860    -1.1540 h1         1 7N2       0.107700
     45 H13          4.4580     0.0620    -3.7980 ha         1 7N2       0.152000
     46 H14          5.2810    -1.3990    -5.6050 ha         1 7N2       0.147000
     47 H15          3.8930    -1.7860    -7.6060 ha         1 7N2       0.156000
     48 H16          0.8550     0.7430    -5.9890 ha         1 7N2       0.165000
@<TRIPOS>BOND
     1    17    18 ar
     2    17    16 ar
     3    18    14 ar
     4    16    13 ar
     5     9    10 ar
     6     9     8 ar
     7    10    11 ar
     8    14    15 ar
     9    22    20 2
    10    21    20 2
    11    13    15 ar
    12    13    19 1
    13     8     7 ar
    14    11    12 1
    15    11     6 ar
    16    12    20 1
    17    12    19 1
    18    20    23 1
    19    19     2 1
    20     7     6 ar
    21     6     1 1
    22    23    28 ar
    23    23    24 ar
    24     2     1 1
    25     2     3 2
    26    28    27 ar
    27     1     5 1
    28    24    25 ar
    29    32    29 1
    30     3     4 1
    31    30    29 1
    32    27    29 1
    33    27    26 ar
    34     5     4 2
    35    29    31 1
    36    25    26 ar
    37     3    33 1
    38     4    34 1
    39     5    35 1
    40     7    36 1
    41     8    37 1
    42     9    38 1
    43    10    39 1
    44    14    40 1
    45    15    41 1
    46    16    42 1
    47    18    43 1
    48    19    44 1
    49    24    45 1
    50    25    46 1
    51    26    47 1
    52    28    48 1
@<TRIPOS>SUBSTRUCTURE
     1 7N2         1 TEMP              0 ****  ****    0 ROOT
