@<TRIPOS>MOLECULE
7N3
   37    39     1     0     0
SMALL
bcc


@<TRIPOS>ATOM
      1 O2           0.0000     0.0000     0.0000 o          1 7N3      -0.636500
      2 C2           1.2180     0.0000     0.0000 c          1 7N3       0.615100
      3 C1           1.9790     0.0000     1.2560 ca         1 7N3      -0.206600
      4 C6           1.3480    -0.0010     2.4990 ca         1 7N3      -0.008000
      5 C7           2.1080    -0.0010     3.6470 ca         1 7N3      -0.115000
      6 C5           3.4960    -0.0020     3.5770 ca         1 7N3      -0.056000
      7 C4           4.1400    -0.0010     2.3600 ca         1 7N3      -0.104000
      8 C            3.3920    -0.0000     1.1810 ca         1 7N3       0.150400
      9 N1           1.9180    -0.0050    -1.1580 ns         1 7N3       0.025600
     10 C3           3.2840    -0.0060    -1.1420 cc         1 7N3       0.335800
     11 N            3.9860     0.0010    -0.0360 nd         1 7N3      -0.584100
     12 S            4.1410    -0.0130    -2.6810 ss         1 7N3      -0.227300
     13 C8           5.8520    -0.0110    -2.0880 c3         1 7N3       0.012700
     14 C9           6.7910    -0.0160    -3.2650 c          1 7N3       0.554100
     15 O            6.3490    -0.0210    -4.3950 o          1 7N3      -0.534100
     16 N2           8.1240    -0.0150    -3.0640 ns         1 7N3       0.040900
     17 C10          8.9890    -0.0200    -4.1480 cc         1 7N3       0.124500
     18 S1           8.4990    -0.0270    -5.7800 ss         1 7N3      -0.033800
     19 C12         10.1540    -0.0310    -6.3590 cc         1 7N3       0.015900
     20 C11         11.0080    -0.0270    -5.3450 cd         1 7N3      -0.116000
     21 C13         10.3570    -0.0150    -4.0540 cd         1 7N3      -0.377600
     22 C14         11.0820    -0.0080    -2.7790 c          1 7N3       0.393700
     23 O1          10.4680     0.0020    -1.7290 o          1 7N3      -0.521100
     24 N3          12.4300    -0.0140    -2.7720 nz         1 7N3       0.211600
     25 H1           0.2670    -0.0010     2.5610 ha         1 7N3       0.131000
     26 H2           1.6200    -0.0010     4.6140 ha         1 7N3       0.115000
     27 H3           4.0780    -0.0020     4.4900 ha         1 7N3       0.106000
     28 H4           5.2220    -0.0020     2.3180 ha         1 7N3       0.110000
     29 H6           6.0260     0.8770    -1.4910 h1         1 7N3       0.076200
     30 H7           6.0250    -0.8930    -1.4830 h1         1 7N3       0.076200
     31 H8           8.4890    -0.0460    -2.1320 hn         1 7N3       0.213500
     32 H9          10.4400    -0.0380    -7.4040 h4         1 7N3       0.172000
     33 H10         12.0840    -0.0270    -5.4710 ha         1 7N3       0.111000
     34 H11         12.7710     0.5790    -3.5020 hn         1 7N3       0.244467
     35 H12         12.7600     0.3210    -1.8880 hn         1 7N3       0.244467
     36 H5           1.4310    -0.0100    -2.0320 hn         1 7N3       0.193500
     37 H33         12.7610    -0.9460    -2.9260 hn         1 7N3       0.244467
@<TRIPOS>BOND
     1     1     2 2   
     2     2     3 1   
     3     2     9 1   
     4     3     4 ar  
     5     3     8 ar  
     6     4     5 ar  
     7     4    25 1   
     8     5     6 ar  
     9     5    26 1   
    10     6     7 ar  
    11     6    27 1   
    12     7     8 ar  
    13     7    28 1   
    14     8    11 1   
    15     9    10 1   
    16     9    36 1   
    17    10    11 2   
    18    10    12 1   
    19    12    13 1   
    20    13    14 1   
    21    13    29 1   
    22    13    30 1   
    23    14    15 2   
    24    14    16 1   
    25    16    17 1   
    26    16    31 1   
    27    17    18 1   
    28    17    21 2   
    29    18    19 1   
    30    19    20 2   
    31    19    32 1   
    32    20    21 1   
    33    20    33 1   
    34    21    22 1   
    35    22    23 2   
    36    22    24 1   
    37    24    34 1   
    38    24    35 1   
    39    24    37 1   
@<TRIPOS>SUBSTRUCTURE
     1 7N3         1 TEMP              0 ****  ****    0 ROOT
