@<TRIPOS>MOLECULE
molecule
   18    17     1     0     0
SMALL
bcc


@<TRIPOS>ATOM
      1 C4           0.0000     0.0000     0.0000 c3         1 7N5      -0.187400
      2 C2           2.0410    -0.0000    -1.4420 c3         1 7N5      -0.086400
      3 C3           1.5310     0.0000     0.0000 c3         1 7N5      -0.076400
      4 C5          -0.5020     0.0000     1.4210 c          1 7N5       0.473100
      5 C1           3.5700    -0.0000    -1.4430 c3         1 7N5      -0.091100
      6 C6          -1.9670     0.0000     1.6930 c          1 7N5       0.804600
      7 O7          -2.7560     0.0000     0.7710 o          1 7N5      -0.816800
      8 O8          -2.4160     0.0000     2.9620 o          1 7N5      -0.816800
      9 O9           0.2820     0.0000     2.3390 o          1 7N5      -0.551100
     10 H1          -0.3610     0.8850    -0.5110 hc         1 7N5       0.059700
     11 H2          -0.3610    -0.8850    -0.5110 hc         1 7N5       0.059700
     12 H3           1.6800     0.8840    -1.9530 hc         1 7N5       0.033700
     13 H4           1.6800    -0.8840    -1.9530 hc         1 7N5       0.033700
     14 H5           1.8920    -0.8840     0.5110 hc         1 7N5       0.044700
     15 H6           1.8920     0.8840     0.5110 hc         1 7N5       0.044700
     16 H7           3.9320     0.8850    -0.9320 hc         1 7N5       0.024033
     17 H8           3.9310    -0.0000    -2.4640 hc         1 7N5       0.024033
     18 H9           3.9320    -0.8850    -0.9320 hc         1 7N5       0.024033
@<TRIPOS>BOND
     1     7     6 1   
     2     6     8 1   
     3     6     4 1   
     4     1     4 1   
     5     1     3 1   
     6     4     9 2   
     7     2     3 1   
     8     2     5 1   
     9     1    10 1   
    10     1    11 1   
    11     2    12 1   
    12     2    13 1   
    13     3    14 1   
    14     3    15 1   
    15     5    16 1   
    16     5    17 1   
    17     5    18 1   
@<TRIPOS>SUBSTRUCTURE
     1 7N5         1 TEMP              0 ****  ****    0 ROOT
