@<TRIPOS>MOLECULE
molecule
   20    19     1     0     0
SMALL
bcc


@<TRIPOS>ATOM
      1 C2           0.0000     0.0000     0.0000 c3         1 7N6      -0.085400
      2 C3           1.5300     0.0000     0.0000 c3         1 7N6      -0.086400
      3 C6           4.0710    -0.1250     2.8580 c          1 7N6       0.869600
      4 O8           4.6900     0.7830     3.3610 o          1 7N6      -0.843800
      5 O9           4.0460     1.2200     0.8730 oh         1 7N6      -0.615800
      6 C5           3.5700    -0.0010     1.4420 c3         1 7N6       0.039100
      7 O7           3.8320    -1.2440     3.5600 o          1 7N6      -0.843800
      8 C4           2.0400     0.0000     1.4430 c3         1 7N6      -0.058400
      9 C1          -0.5100    -0.0000    -1.4430 c3         1 7N6      -0.092100
     10 H1          -0.3610    -0.8850     0.5110 hc         1 7N6       0.036200
     11 H2          -0.3610     0.8850     0.5110 hc         1 7N6       0.036200
     12 H3           1.8910     0.8850    -0.5110 hc         1 7N6       0.035200
     13 H4           1.8910    -0.8850    -0.5110 hc         1 7N6       0.035200
     14 H5           4.9080     1.0850     0.5140 ho         1 7N6       0.383000
     15 H6           3.9300    -0.8370     0.8570 h1         1 7N6       0.013700
     16 H8           1.6780    -0.8840     1.9540 hc         1 7N6       0.054700
     17 H9           1.6790     0.8850     1.9540 hc         1 7N6       0.054700
     18 H10         -1.5920     0.0570    -1.4440 hc         1 7N6       0.022367
     19 H11         -0.1960    -0.9110    -1.9370 hc         1 7N6       0.022367
     20 H12         -0.1030     0.8550    -1.9700 hc         1 7N6       0.022367
@<TRIPOS>BOND
     1     6     8 1   
     2     6     3 1   
     3     6     5 1   
     4     8     2 1   
     5     4     3 1   
     6     3     7 1   
     7     2     1 1   
     8     9     1 1   
     9     1    10 1   
    10     1    11 1   
    11     2    12 1   
    12     2    13 1   
    13     5    14 1   
    14     6    15 1   
    15     8    16 1   
    16     8    17 1   
    17     9    18 1   
    18     9    19 1   
    19     9    20 1   
@<TRIPOS>SUBSTRUCTURE
     1 7N6         1 TEMP              0 ****  ****    0 ROOT
