@<TRIPOS>MOLECULE
7N9
   22    22     1     0     0
SMALL
bcc


@<TRIPOS>ATOM
      1 C4           0.0000     0.0000     0.0000 ca         1 7N9      -0.082600
      2 C5           1.3830     0.0000     0.0000 ca         1 7N9      -0.030000
      3 C6           2.0750     0.0000     1.1950 ca         1 7N9      -0.243300
      4 C7           3.5820     0.0000     1.1950 c3         1 7N9       0.050100
      5 N            4.0720    -1.3630     1.4350 nz         1 7N9       0.072400
      6 C            1.2820     0.0010     4.7730 c3         1 7N9       0.253700
      7 Cl          -0.8670    -0.0010    -1.5040 cl         1 7N9       0.047600
      8 C1           1.3820     0.0010     2.3970 ca         1 7N9       0.176100
      9 C2          -0.0060     0.0000     2.3950 ca         1 7N9      -0.179000
     10 C3          -0.6930    -0.0060     1.1980 ca         1 7N9       0.004000
     11 H8           1.9240     0.0160    -0.9380 ha         1 7N9       0.121000
     12 H10          3.9430     0.3500     0.2350 hx         1 7N9       0.084200
     13 H9           3.9430     0.6570     1.9770 hx         1 7N9       0.084200
     14 HN3          3.5030    -2.0160     0.9330 hn         1 7N9       0.223800
     15 HN2          4.0290    -1.5660     2.4140 hn         1 7N9       0.223800
     16 HN1          5.0200    -1.4370     1.1210 hn         1 7N9       0.223800
     17 H3           1.9420     0.0010     5.6320 h1         1 7N9       0.013367
     18 H5           0.6560     0.8850     4.7990 h1         1 7N9       0.013367
     19 H4           0.6590    -0.8850     4.7960 h1         1 7N9       0.013367
     20 H6          -0.5490    -0.0010     3.3320 ha         1 7N9       0.144000
     21 H7          -1.7770    -0.0060     1.1960 ha         1 7N9       0.132000
     22 O            2.0610     0.0010     3.5740 os         1 7N9      -0.346900
@<TRIPOS>BOND
     1     1     2 ar  
     2     1     7 1   
     3     1    10 ar  
     4     2     3 ar  
     5     2    11 1   
     6     3     4 1   
     7     3     8 ar  
     8     4     5 1   
     9     4    12 1   
    10     4    13 1   
    11     5    14 1   
    12     5    15 1   
    13     5    16 1   
    14     6    17 1   
    15     6    18 1   
    16     6    19 1   
    17     6    22 1   
    18     8     9 ar  
    19     8    22 1   
    20     9    10 ar  
    21     9    20 1   
    22    10    21 1   
@<TRIPOS>SUBSTRUCTURE
     1 7N9         1 TEMP              0 ****  ****    0 ROOT
