@<TRIPOS>MOLECULE
molecule
   28    29     1     0     0
SMALL
bcc


@<TRIPOS>ATOM
      1 C1A          0.0000     0.0000     0.0000 c3         1 7NA       0.133700
      2 O1C          6.7490     1.1650     0.8920 o          1 7NA      -0.825300
      3 O1D          6.7120    -1.0550     0.9450 o          1 7NA      -0.825300
      4 O1E          7.4280    -0.0040     4.0550 oh         1 7NA      -0.493100
      5 C1F          5.2650    -0.0020     5.0500 ca         1 7NA      -0.160000
      6 C1G          3.9100     0.0000     4.9570 ca         1 7NA      -0.147000
      7 C1H          1.2790     0.0010     2.3790 ca         1 7NA      -0.209000
      8 C1I          3.4230    -0.0020     1.2750 ca         1 7NA      -0.102000
      9 O1J          1.4290     0.0000     0.0000 os         1 7NA      -0.328900
     10 C1K          6.3600    -0.0030     1.4420 c          1 7NA       0.889200
     11 C1L          1.8700     0.0020     3.6040 ca         1 7NA      -0.062300
     12 C1M          2.0460     0.0000     1.2110 ca         1 7NA       0.095100
     13 C1N          6.0790    -0.0020     3.9160 ca         1 7NA       0.082100
     14 C1O          5.5120    -0.0030     2.6390 ca         1 7NA      -0.052600
     15 C1P          3.2720     0.0000     3.7040 ca         1 7NA      -0.065000
     16 C1Q          4.0530    -0.0020     2.5230 ca         1 7NA       0.014000
     17 H1A         -0.3610     0.8850     0.5100 h1         1 7NA       0.029033
     18 H1AA        -0.3610    -0.8840     0.5110 h1         1 7NA       0.029033
     19 H1AB        -0.3610    -0.0010    -1.0210 h1         1 7NA       0.029033
     20 H1B          1.2450     0.8880     5.4360 hc         1 7NA       0.033700
     21 H1BA        -0.0240     0.0050     4.5770 hc         1 7NA       0.033700
     22 H1BB         1.2420    -0.8810     5.4370 hc         1 7NA       0.033700
     23 HO1E         7.6950    -0.7840     4.5130 ho         1 7NA       0.396000
     24 H1F          5.7270    -0.0020     6.0300 ha         1 7NA       0.109000
     25 H1G          3.3130     0.0000     5.8610 ha         1 7NA       0.109000
     26 H1H          0.1980     0.0020     2.3080 ha         1 7NA       0.114000
     27 H1I          4.0120    -0.0020     0.3660 ha         1 7NA       0.180000
     28 C1B          1.0240     0.0030     4.8510 c3         1 7NA      -0.040800
@<TRIPOS>BOND
     1     9     1 1   
     2     1    17 1   
     3     1    18 1   
     4     1    19 1   
     5    28    11 1   
     6    28    20 1   
     7    28    21 1   
     8    28    22 1   
     9    10     2 1   
    10     3    10 1   
    11     4    13 1   
    12     4    23 1   
    13     5    13 ar  
    14     5     6 ar  
    15     5    24 1   
    16     6    15 ar  
    17     6    25 1   
    18    11     7 ar  
    19     7    12 ar  
    20     7    26 1   
    21    16     8 ar  
    22     8    12 ar  
    23     8    27 1   
    24    12     9 1   
    25    14    10 1   
    26    15    11 ar  
    27    13    14 ar  
    28    14    16 ar  
    29    15    16 ar  
@<TRIPOS>SUBSTRUCTURE
     1 7NA         1 TEMP              0 ****  ****    0 ROOT
