@<TRIPOS>MOLECULE
7NA
   28    28     1     0     0
SMALL
bcc


@<TRIPOS>ATOM
      1 C1A        -0.3410   -0.2570   -1.2160 c3        1 7NA     -0.073000
      2 O1C         5.1570   -0.5270    0.7850 os        1 7NA     -0.210000
      3 O1D         7.3820   -0.7250    1.0310 o         1 7NA     -0.394000
      4 O1E         7.9490   -0.3690    4.2270 oh        1 7NA     -0.266000
      5 C1F         5.8830   -0.0070    5.3720 ca        1 7NA     -0.290000
      6 C1G         4.5250    0.1310    5.3530 ca        1 7NA      0.020000
      7 C1H         0.7740    0.0750    1.9730 c1        1 7NA     -0.260000
      8 C1I         4.0360   -0.3010    1.6360 c2        1 7NA     -0.138000
      9 O1J        -0.9130   -0.0020    0.0720 os        1 7NA     -0.148000
     10 C1K         6.2960   -0.5400    1.5900 c2        1 7NA      0.345000
     11 C1L         2.3510    0.2010    4.1700 c1        1 7NA     -0.265000
     12 C1M         0.0090    0.0310    1.0470 c1        1 7NA     -0.278000
     13 C1N         6.5890   -0.2400    4.1410 ca        1 7NA      0.231000
     14 C1O         5.8890   -0.3190    2.9730 ca        1 7NA     -0.334000
     15 C1P         3.7050    0.0620    4.1710 ca        1 7NA     -0.176000
     16 C1Q         4.4230   -0.1720    2.9390 ca        1 7NA      0.007000
     17 H1A         0.3820    0.5480   -1.4900 h1        1 7NA      0.066333
     18 H1AA       -1.2210   -0.2530   -1.9060 h1        1 7NA      0.066333
     19 H1AB        0.1680   -1.2500   -1.2290 h1        1 7NA      0.066333
     20 H1B         0.9340    1.3930    5.1630 hc        1 7NA      0.057667
     21 H1BA        2.0140    0.5150    6.3220 hc        1 7NA      0.057667
     22 H1BB        0.7510   -0.3930    5.3950 hc        1 7NA      0.057667
     23 HO1E        8.2880   -0.5200    3.3270 ho        1 7NA      0.240000
     24 H1F         6.4680    0.0530    6.2960 ha        1 7NA      0.126000
     25 H1G         4.0080    0.3080    6.3120 ha        1 7NA      0.109000
     26 H1H         1.5220    0.1210    2.9090 ha        1 7NA      0.361000
     27 H1I         3.0840   -0.2700    1.1170 h4        1 7NA      0.200000
     28 C1B         1.5000    0.4390    5.3290 c3        1 7NA     -0.178000
@<TRIPOS>BOND
     1    1    9 1   
     2    1   17 1   
     3    1   18 1   
     4    1   19 1   
     5    2    8 1   
     6    2   10 1   
     7    3   10 1   
     8    4   13 1   
     9    4   23 1   
    10    5    6 1   
    11    5   13 1   
    12    5   24 1   
    13    6   15 1   
    14    6   25 1   
    15    7   12 1   
    16    7   26 1   
    17    8   16 1   
    18    8   27 1   
    19    9   12 1   
    20   10   14 1   
    21   11   15 1   
    22   11   28 1   
    23   13   14 1   
    24   14   16 1   
    25   15   16 1   
    26   20   28 1   
    27   21   28 1   
    28   22   28 1   
@<TRIPOS>SUBSTRUCTURE
     1 7NA         1 TEMP              0 ****  ****    0 ROOT
