@<TRIPOS>MOLECULE
molecule
   75    80     1     0     0
SMALL
bcc


@<TRIPOS>ATOM
      1 CAA          0.0000     0.0000     0.0000 cy         1 7NB      -0.042500
      2 CAB          1.5350     0.0000     0.0000 cy         1 7NB       0.134100
      3 OAE          2.1220    -1.1940    -0.5210 oh         1 7NB      -0.576800
      4 CAC          1.3560     0.0000     1.5240 cy         1 7NB      -0.042500
      5 NAD          0.0510    -0.6460     1.3200 nj         1 7NB      -0.535800
      6 C           -0.7460    -1.4680     2.0300 c          1 7NB       0.683100
      7 O           -1.8040    -1.8380     1.5650 o          1 7NB      -0.576100
      8 CA          -0.3260    -1.9280     3.4020 c3         1 7NB       0.039800
      9 N           -1.3590    -2.8080     3.9620 n3         1 7NB      -0.665600
     10 CAN         -1.1010    -3.0860     5.3820 c3         1 7NB       0.111300
     11 CAM         -2.2890    -3.8520     5.9730 c3         1 7NB       0.251300
     12 CAJ         -1.4680    -4.0510     3.1880 c3         1 7NB       0.111300
     13 CAK         -2.6710    -4.8580     3.6890 c3         1 7NB       0.251300
     14 NAL         -2.5380    -5.0410     5.1420 nh         1 7NB      -0.701000
     15 CAO         -2.6460    -6.3120     5.7200 cc         1 7NB       0.215600
     16 CAT         -3.0060    -7.3720     4.9580 cd         1 7NB      -0.225300
     17 NAS         -3.1150    -8.6220     5.5110 na         1 7NB       0.062700
     18 CAP         -2.3740    -6.4860     7.0940 cc         1 7NB      -0.214000
     19 CAQ         -2.4800    -7.7220     7.6510 cd         1 7NB       0.020700
     20 CAX         -2.1930    -7.9200     9.1170 c3         1 7NB      -0.068800
     21 CAR         -2.8610    -8.8150     6.8470 cd         1 7NB      -0.060300
     22 NAU         -3.0380   -10.1000     7.1180 nc         1 7NB      -0.296600
     23 CAV         -3.3980   -10.7400     6.0010 cc         1 7NB       0.108400
     24 CAY         -3.6940   -12.2140     5.8880 c3         1 7NB       0.007800
     25 CAZ         -5.1990   -12.4440     6.0330 c3         1 7NB      -0.094100
     26 CAW         -3.4540    -9.8390     4.9870 cd         1 7NB      -0.009100
     27 NBA         -3.7920   -10.1070     3.6540 nh         1 7NB      -0.621100
     28 CBB         -5.1700    -9.9160     3.1960 c3         1 7NB       0.230100
     29 CBC         -2.8270   -10.5490     2.7740 cc         1 7NB       0.726300
     30 NBG         -3.0590   -10.9130     1.5490 nd         1 7NB      -0.758000
     31 SBD         -1.1650   -10.6860     3.1450 ss         1 7NB      -0.124300
     32 CBE         -0.8320   -11.2770     1.5190 cc         1 7NB      -0.163400
     33 CBI          0.4510   -11.6490     1.0020 cg         1 7NB       0.283800
     34 N1           1.4720   -11.9540     0.6090 n1         1 7NB      -0.367800
     35 CBF         -2.0270   -11.3140     0.8320 cd         1 7NB       0.525800
     36 CBH         -2.1400   -11.7570    -0.5760 ca         1 7NB      -0.190500
     37 CBJ         -3.2720   -12.4510    -1.0030 ca         1 7NB      -0.079000
     38 CBK         -3.3730   -12.8610    -2.3160 ca         1 7NB      -0.153500
     39 CBL         -2.3520   -12.5860    -3.2110 ca         1 7NB       0.128900
     40 FBO         -2.4550   -12.9890    -4.4950 f          1 7NB      -0.137900
     41 CBM         -1.2250   -11.8950    -2.7920 ca         1 7NB      -0.153500
     42 CBN         -1.1170   -11.4760    -1.4820 ca         1 7NB      -0.079000
     43 H1          -0.4170     0.8960    -0.4440 h1         1 7NB       0.110700
     44 H2          -0.4170    -0.9210    -0.3900 h1         1 7NB       0.110700
     45 H3           1.9600     0.9220    -0.3780 h1         1 7NB       0.102700
     46 H4           1.7900    -1.9390    -0.0480 ho         1 7NB       0.409000
     47 H5           1.2330    -1.0500     1.7590 h1         1 7NB       0.110700
     48 H6           1.5920     0.9110     2.0620 h1         1 7NB       0.110700
     49 H7           0.7220    -1.7070     3.5650 h1         1 7NB       0.058200
     50 H8          -0.5850    -1.1190     4.0740 h1         1 7NB       0.058200
     51 H10         -0.0200    -3.0350     5.3360 h1         1 7NB       0.053200
     52 H11         -1.1880    -2.1890     5.9830 h1         1 7NB       0.053200
     53 H12         -2.0790    -4.0000     7.0260 h1         1 7NB       0.064950
     54 H13         -3.0700    -3.1080     5.8680 h1         1 7NB       0.064950
     55 H14         -1.8820    -3.9010     2.1980 h1         1 7NB       0.053200
     56 H15         -0.5420    -4.6020     3.3040 h1         1 7NB       0.053200
     57 H16         -3.5250    -4.2770     3.3620 h1         1 7NB       0.064950
     58 H17         -2.7270    -5.7600     3.0920 h1         1 7NB       0.064950
     59 H18         -3.7490    -7.4570     4.1740 h4         1 7NB       0.163000
     60 H19         -3.0420    -5.8110     7.6140 ha         1 7NB       0.154000
     61 H20         -1.3460    -7.2440     9.1270 hc         1 7NB       0.068367
     62 H21         -2.8840    -7.6630     9.9100 hc         1 7NB       0.068367
     63 H22         -1.4120    -8.6650     9.0140 hc         1 7NB       0.068367
     64 H23         -3.3200   -12.6690     4.9790 hc         1 7NB       0.057700
     65 H24         -3.1610   -12.7170     6.6850 hc         1 7NB       0.057700
     66 H25         -5.6370   -13.4320     5.9610 hc         1 7NB       0.035367
     67 H26         -5.5090   -12.0530     6.9950 hc         1 7NB       0.035367
     68 H27         -5.7210   -11.9800     5.2060 hc         1 7NB       0.035367
     69 H28         -5.3000    -8.8640     2.9760 h1         1 7NB       0.044700
     70 H29         -5.9600   -10.5230     2.7700 h1         1 7NB       0.044700
     71 H30         -5.5490    -9.7950     4.2040 h1         1 7NB       0.044700
     72 H31         -3.5970   -12.9110    -0.0770 ha         1 7NB       0.161000
     73 H32         -4.1690   -13.3840    -2.8330 ha         1 7NB       0.149500
     74 H33         -0.4790   -11.6250    -3.5300 ha         1 7NB       0.149500
     75 H34         -0.3340   -11.2880    -0.7580 ha         1 7NB       0.161000
@<TRIPOS>BOND
     1    25    24 1
     2    24    23 1
     3    23    22 1
     4    23    26 2
     5    22    21 2
     6    42    41 ar
     7    42    36 ar
     8    28    27 1
     9    26    27 1
    10    26    17 1
    11    41    39 ar
    12    27    29 1
    13    29    30 2
    14    29    31 1
    15    30    35 1
    16    31    32 1
    17    35    36 1
    18    35    32 2
    19    36    37 ar
    20    32    33 1
    21    39    40 1
    22    39    38 ar
    23    21    17 1
    24    21    19 1
    25    33    34 3
    26    17    16 1
    27    37    38 ar
    28    20    19 1
    29    19    18 2
    30    16    15 2
    31    18    15 1
    32    15    14 1
    33    14    13 1
    34    14    11 1
    35    13    12 1
    36    11    10 1
    37    12     9 1
    38    10     9 1
    39     9     8 1
    40     8     6 1
    41     1     5 1
    42     1     2 1
    43     6     5 1
    44     6     7 2
    45     5     4 1
    46     2     4 1
    47     2     3 1
    48     1    43 1
    49     1    44 1
    50     2    45 1
    51     3    46 1
    52     4    47 1
    53     4    48 1
    54     8    49 1
    55     8    50 1
    56    10    51 1
    57    10    52 1
    58    11    53 1
    59    11    54 1
    60    12    55 1
    61    12    56 1
    62    13    57 1
    63    13    58 1
    64    16    59 1
    65    18    60 1
    66    20    61 1
    67    20    62 1
    68    20    63 1
    69    24    64 1
    70    24    65 1
    71    25    66 1
    72    25    67 1
    73    25    68 1
    74    28    69 1
    75    28    70 1
    76    28    71 1
    77    37    72 1
    78    38    73 1
    79    41    74 1
    80    42    75 1
@<TRIPOS>SUBSTRUCTURE
     1 7NB         1 TEMP              0 ****  ****    0 ROOT
