@<TRIPOS>MOLECULE
7NB
   75    80     1     0     0
SMALL
bcc


@<TRIPOS>ATOM
      1 CAA          0.0000     0.0000     0.0000 cy         1 7NB      -0.082000
      2 CAB          1.5350     0.0000     0.0000 cy         1 7NB       0.194100
      3 OAE          2.1220    -1.1940    -0.5210 oh         1 7NB      -0.560800
      4 CAC          1.3560     0.0000     1.5240 cy         1 7NB      -0.082000
      5 NAD          0.0510    -0.6460     1.3200 nj         1 7NB      -0.227800
      6 C           -0.7460    -1.4680     2.0300 c          1 7NB       0.628100
      7 O           -1.8040    -1.8380     1.5650 o          1 7NB      -0.613100
      8 CA          -0.3260    -1.9280     3.4020 c3         1 7NB       0.031800
      9 N           -1.3590    -2.8080     3.9620 n3         1 7NB      -0.481600
     10 CAN         -1.1010    -3.0860     5.3820 c3         1 7NB       0.093300
     11 CAM         -2.2890    -3.8520     5.9730 c3         1 7NB       0.179300
     12 CAJ         -1.4680    -4.0510     3.1880 c3         1 7NB       0.093300
     13 CAK         -2.6710    -4.8580     3.6890 c3         1 7NB       0.179300
     14 NAL         -2.5380    -5.0410     5.1420 nh         1 7NB      -0.319000
     15 CAO         -2.6460    -6.3120     5.7200 cc         1 7NB       0.135600
     16 CAT         -3.0060    -7.3720     4.9580 cd         1 7NB      -0.449300
     17 NAS         -3.1150    -8.6220     5.5110 na         1 7NB       0.667700
     18 CAP         -2.3740    -6.4860     7.0940 cc         1 7NB      -0.237000
     19 CAQ         -2.4800    -7.7220     7.6510 cd         1 7NB       0.067700
     20 CAX         -2.1930    -7.9200     9.1170 c3         1 7NB       0.024200
     21 CAR         -2.8610    -8.8150     6.8470 cd         1 7NB      -0.290300
     22 NAU         -3.0380   -10.1000     7.1180 nc         1 7NB      -0.215600
     23 CAV         -3.3980   -10.7400     6.0010 cc         1 7NB       0.087400
     24 CAY         -3.6940   -12.2140     5.8880 c3         1 7NB       0.069800
     25 CAZ         -5.1990   -12.4440     6.0330 c3         1 7NB       0.000900
     26 CAW         -3.4540    -9.8390     4.9870 cd         1 7NB      -0.383100
     27 NBA         -3.7920   -10.1070     3.6540 nh         1 7NB      -0.147100
     28 CBB         -5.1700    -9.9160     3.1960 c3         1 7NB       0.171100
     29 CBC         -2.8270   -10.5490     2.7740 cc         1 7NB       0.576300
     30 NBG         -3.0590   -10.9130     1.5490 nd         1 7NB      -0.656000
     31 SBD         -1.1650   -10.6860     3.1450 ss         1 7NB      -0.266300
     32 CBE         -0.8320   -11.2770     1.5190 cc         1 7NB      -0.078400
     33 CBI          0.4510   -11.6490     1.0020 cg         1 7NB       0.291800
     34 N1           1.4720   -11.9540     0.6090 n1         1 7NB      -0.388800
     35 CBF         -2.0270   -11.3140     0.8320 cd         1 7NB       0.495800
     36 CBH         -2.1400   -11.7570    -0.5760 ca         1 7NB      -0.206500
     37 CBJ         -3.2720   -12.4510    -1.0030 ca         1 7NB      -0.064000
     38 CBK         -3.3730   -12.8610    -2.3160 ca         1 7NB      -0.108000
     39 CBL         -2.3520   -12.5860    -3.2110 ca         1 7NB       0.091900
     40 FBO         -2.4550   -12.9890    -4.4950 f          1 7NB      -0.126900
     41 CBM         -1.2250   -11.8950    -2.7920 ca         1 7NB      -0.108000
     42 CBN         -1.1170   -11.4760    -1.4820 ca         1 7NB      -0.064000
     43 H1          -0.4170     0.8960    -0.4440 h1         1 7NB       0.074950
     44 H2          -0.4170    -0.9210    -0.3900 h1         1 7NB       0.074950
     45 H3           1.9600     0.9220    -0.3780 h1         1 7NB       0.060700
     46 H4           1.7900    -1.9390    -0.0480 ho         1 7NB       0.395000
     47 H5           1.2330    -1.0500     1.7590 h1         1 7NB       0.074950
     48 H6           1.5920     0.9110     2.0620 h1         1 7NB       0.074950
     49 H7           0.7220    -1.7070     3.5650 h1         1 7NB       0.032200
     50 H8          -0.5850    -1.1190     4.0740 h1         1 7NB       0.032200
     51 H10         -0.0200    -3.0350     5.3360 h1         1 7NB       0.030700
     52 H11         -1.1880    -2.1890     5.9830 h1         1 7NB       0.030700
     53 H12         -2.0790    -4.0000     7.0260 h1         1 7NB       0.037950
     54 H13         -3.0700    -3.1080     5.8680 h1         1 7NB       0.037950
     55 H14         -1.8820    -3.9010     2.1980 h1         1 7NB       0.030700
     56 H15         -0.5420    -4.6020     3.3040 h1         1 7NB       0.030700
     57 H16         -3.5250    -4.2770     3.3620 h1         1 7NB       0.037950
     58 H17         -2.7270    -5.7600     3.0920 h1         1 7NB       0.037950
     59 H18         -3.7490    -7.4570     4.1740 h4         1 7NB       0.146000
     60 H19         -3.0420    -5.8110     7.6140 ha         1 7NB       0.134000
     61 H20         -1.3460    -7.2440     9.1270 hc         1 7NB       0.032367
     62 H21         -2.8840    -7.6630     9.9100 hc         1 7NB       0.032367
     63 H22         -1.4120    -8.6650     9.0140 hc         1 7NB       0.032367
     64 H23         -3.3200   -12.6690     4.9790 hc         1 7NB       0.022700
     65 H24         -3.1610   -12.7170     6.6850 hc         1 7NB       0.022700
     66 H25         -5.6370   -13.4320     5.9610 hc         1 7NB       0.001033
     67 H26         -5.5090   -12.0530     6.9950 hc         1 7NB       0.001033
     68 H27         -5.7210   -11.9800     5.2060 hc         1 7NB       0.001033
     69 H28         -5.3000    -8.8640     2.9760 h1         1 7NB       0.013700
     70 H29         -5.9600   -10.5230     2.7700 h1         1 7NB       0.013700
     71 H30         -5.5490    -9.7950     4.2040 h1         1 7NB       0.013700
     72 H31         -3.5970   -12.9110    -0.0770 ha         1 7NB       0.136000
     73 H32         -4.1690   -13.3840    -2.8330 ha         1 7NB       0.121000
     74 H33         -0.4790   -11.6250    -3.5300 ha         1 7NB       0.121000
     75 H34         -0.3340   -11.2880    -0.7580 ha         1 7NB       0.136000
@<TRIPOS>BOND
     1     1     2 1   
     2     1     5 1   
     3     1    43 1   
     4     1    44 1   
     5     2     3 1   
     6     2     4 1   
     7     2    45 1   
     8     3    46 1   
     9     4     5 1   
    10     4    47 1   
    11     4    48 1   
    12     5     6 1   
    13     6     7 2   
    14     6     8 1   
    15     8     9 1   
    16     8    49 1   
    17     8    50 1   
    18     9    10 1   
    19     9    12 1   
    20    10    11 1   
    21    10    51 1   
    22    10    52 1   
    23    11    14 1   
    24    11    53 1   
    25    11    54 1   
    26    12    13 1   
    27    12    55 1   
    28    12    56 1   
    29    13    14 1   
    30    13    57 1   
    31    13    58 1   
    32    14    15 1   
    33    15    16 2   
    34    15    18 1   
    35    16    17 1   
    36    16    59 1   
    37    17    21 1   
    38    17    26 1   
    39    18    19 2   
    40    18    60 1   
    41    19    20 1   
    42    19    21 1   
    43    20    61 1   
    44    20    62 1   
    45    20    63 1   
    46    21    22 2   
    47    22    23 1   
    48    23    24 1   
    49    23    26 2   
    50    24    25 1   
    51    24    64 1   
    52    24    65 1   
    53    25    66 1   
    54    25    67 1   
    55    25    68 1   
    56    26    27 1   
    57    27    28 1   
    58    27    29 1   
    59    28    69 1   
    60    28    70 1   
    61    28    71 1   
    62    29    30 2   
    63    29    31 1   
    64    30    35 1   
    65    31    32 1   
    66    32    33 1   
    67    32    35 2   
    68    33    34 3   
    69    35    36 1   
    70    36    37 ar  
    71    36    42 ar  
    72    37    38 ar  
    73    37    72 1   
    74    38    39 ar  
    75    38    73 1   
    76    39    40 1   
    77    39    41 ar  
    78    41    42 ar  
    79    41    74 1   
    80    42    75 1   
@<TRIPOS>SUBSTRUCTURE
     1 7NB         1 TEMP              0 ****  ****    0 ROOT
