@<TRIPOS>MOLECULE
7NC
   36    38     1     0     0
SMALL
bcc


@<TRIPOS>ATOM
      1 O1           0.0000     0.0000     0.0000 o          1 7NC      -0.544100
      2 C2           1.2130     0.0000     0.0000 c          1 7NC       0.653700
      3 C3           1.9660     0.0000     1.3040 c3         1 7NC      -0.007300
      4 S            0.7890     0.0010     2.6810 ss         1 7NC      -0.241300
      5 C4           1.9100     0.0020     4.0400 cc         1 7NC       0.331800
      6 N1           1.4200     0.0030     5.3110 ns         1 7NC       0.066600
      7 C7           2.2730     0.0020     6.3580 c          1 7NC       0.588700
      8 O            1.8510     0.0030     7.5030 o          1 7NC      -0.679500
      9 C6           3.6550     0.0010     6.1040 cc         1 7NC      -0.302200
     10 N            3.2090    -0.0040     3.8110 nd         1 7NC      -0.597300
     11 C5           4.0890     0.0000     4.8090 cd         1 7NC       0.159400
     12 C8           5.5660    -0.0010     4.5110 c3         1 7NC       0.059100
     13 C1           1.9460    -0.0080    -1.2700 ca         1 7NC      -0.184600
     14 C11          3.3330     0.1090    -1.2920 ca         1 7NC      -0.041000
     15 C12          4.0230     0.1010    -2.4950 ca         1 7NC      -0.132000
     16 C10          3.3820    -0.0180    -3.6900 ca         1 7NC      -0.036000
     17 C9           1.9820    -0.1400    -3.7460 ca         1 7NC      -0.058000
     18 C16          1.3090    -0.2630    -4.9720 ca         1 7NC      -0.086000
     19 C15         -0.0490    -0.3790    -4.9860 ca         1 7NC      -0.100000
     20 C14         -0.7800    -0.3770    -3.8020 ca         1 7NC      -0.082000
     21 C13         -0.1570    -0.2580    -2.5940 ca         1 7NC      -0.122000
     22 C            1.2360    -0.1440    -2.5430 ca         1 7NC       0.021000
     23 H1           2.5890     0.8840     1.3620 h1         1 7NC       0.074200
     24 H2           2.5880    -0.8850     1.3620 h1         1 7NC       0.074200
     25 H3           4.3650     0.0020     6.9220 ha         1 7NC       0.149000
     26 H5           6.1210    -0.0700     5.4380 hc         1 7NC       0.017033
     27 H6           5.8060    -0.8500     3.8820 hc         1 7NC       0.017033
     28 H7           5.8310     0.9150     3.9980 hc         1 7NC       0.017033
     29 H8           3.8780     0.2060    -0.3610 ha         1 7NC       0.106000
     30 H9           5.1020     0.1940    -2.4830 ha         1 7NC       0.106000
     31 H10          3.9570    -0.0200    -4.6080 ha         1 7NC       0.105000
     32 H11          1.8650    -0.2660    -5.9020 ha         1 7NC       0.107000
     33 H12         -0.5670    -0.4740    -5.9330 ha         1 7NC       0.103000
     34 H13         -1.8580    -0.4700    -3.8390 ha         1 7NC       0.104000
     35 H14         -0.7380    -0.2580    -1.6800 ha         1 7NC       0.163000
     36 H16          0.4320     0.0040     5.4680 hn         1 7NC       0.189500
@<TRIPOS>BOND
     1     1     2 2   
     2     2     3 1   
     3     2    13 1   
     4     3     4 1   
     5     3    23 1   
     6     3    24 1   
     7     4     5 1   
     8     5     6 1   
     9     5    10 2   
    10     6     7 1   
    11     6    36 1   
    12     7     8 2   
    13     7     9 1   
    14     9    11 2   
    15     9    25 1   
    16    10    11 1   
    17    11    12 1   
    18    12    26 1   
    19    12    27 1   
    20    12    28 1   
    21    13    14 ar  
    22    13    22 ar  
    23    14    15 ar  
    24    14    29 1   
    25    15    16 ar  
    26    15    30 1   
    27    16    17 ar  
    28    16    31 1   
    29    17    18 ar  
    30    17    22 ar  
    31    18    19 ar  
    32    18    32 1   
    33    19    20 ar  
    34    19    33 1   
    35    20    21 ar  
    36    20    34 1   
    37    21    22 ar  
    38    21    35 1   
@<TRIPOS>SUBSTRUCTURE
     1 7NC         1 TEMP              0 ****  ****    0 ROOT
