@<TRIPOS>MOLECULE
molecule
   36    38     1     0     0
SMALL
bcc


@<TRIPOS>ATOM
      1 O1           0.0000     0.0000     0.0000 o          1 7NC      -0.523100
      2 C2           1.2130     0.0000     0.0000 c          1 7NC       0.599700
      3 C3           1.9660     0.0000     1.3040 c3         1 7NC      -0.104300
      4 S            0.7890     0.0010     2.6810 ss         1 7NC      -0.117300
      5 C4           1.9100     0.0020     4.0400 cc         1 7NC       0.507800
      6 N1           1.4200     0.0030     5.3110 ns         1 7NC      -0.431400
      7 C7           2.2730     0.0020     6.3580 c          1 7NC       0.691700
      8 O            1.8510     0.0030     7.5030 o          1 7NC      -0.639500
      9 C6           3.6550     0.0010     6.1040 cd         1 7NC      -0.325200
     10 N            3.2090    -0.0040     3.8110 nc         1 7NC      -0.701300
     11 C5           4.0890     0.0000     4.8090 cc         1 7NC       0.201400
     12 C8           5.5660    -0.0010     4.5110 c3         1 7NC      -0.042900
     13 C1           1.9460    -0.0080    -1.2700 ca         1 7NC      -0.175600
     14 C11          3.3330     0.1090    -1.2920 ca         1 7NC      -0.067000
     15 C12          4.0230     0.1010    -2.4950 ca         1 7NC      -0.154000
     16 C10          3.3820    -0.0180    -3.6900 ca         1 7NC      -0.070000
     17 C9           1.9820    -0.1400    -3.7460 ca         1 7NC      -0.052000
     18 C16          1.3090    -0.2630    -4.9720 ca         1 7NC      -0.115000
     19 C15         -0.0490    -0.3790    -4.9860 ca         1 7NC      -0.125000
     20 C14         -0.7800    -0.3770    -3.8020 ca         1 7NC      -0.115000
     21 C13         -0.1570    -0.2580    -2.5940 ca         1 7NC      -0.126000
     22 C            1.2360    -0.1440    -2.5430 ca         1 7NC       0.008000
     23 H1           2.5890     0.8840     1.3620 h1         1 7NC       0.105200
     24 H2           2.5880    -0.8850     1.3620 h1         1 7NC       0.105200
     25 H3           4.3650     0.0020     6.9220 ha         1 7NC       0.169000
     26 H5           6.1210    -0.0700     5.4380 hc         1 7NC       0.055700
     27 H6           5.8060    -0.8500     3.8820 hc         1 7NC       0.055700
     28 H7           5.8310     0.9150     3.9980 hc         1 7NC       0.055700
     29 H8           3.8780     0.2060    -0.3610 ha         1 7NC       0.135000
     30 H9           5.1020     0.1940    -2.4830 ha         1 7NC       0.134000
     31 H10          3.9570    -0.0200    -4.6080 ha         1 7NC       0.136000
     32 H11          1.8650    -0.2660    -5.9020 ha         1 7NC       0.134000
     33 H12         -0.5670    -0.4740    -5.9330 ha         1 7NC       0.131000
     34 H13         -1.8580    -0.4700    -3.8390 ha         1 7NC       0.134000
     35 H14         -0.7380    -0.2580    -1.6800 ha         1 7NC       0.181000
     36 H16          0.4320     0.0040     5.4680 hn         1 7NC       0.344500
@<TRIPOS>BOND
     1    16    15 ar  
     2    16    17 ar  
     3    18    17 ar  
     4    18    19 ar  
     5    15    14 ar  
     6    17    22 ar  
     7    19    20 ar  
     8    14    13 ar  
     9    12    11 1   
    10    22    13 ar  
    11    22    21 ar  
    12    20    21 ar  
    13    13     2 1   
    14    11     9 2   
    15    11    10 1   
    16     9     7 1   
    17     2     1 2   
    18     2     3 1   
    19    10     5 2   
    20     3     4 1   
    21     7     8 2   
    22     7     6 1   
    23     5     6 1   
    24     5     4 1   
    25     3    23 1   
    26     3    24 1   
    27     9    25 1   
    28    12    26 1   
    29    12    27 1   
    30    12    28 1   
    31    14    29 1   
    32    15    30 1   
    33    16    31 1   
    34    18    32 1   
    35    19    33 1   
    36    20    34 1   
    37    21    35 1   
    38     6    36 1   
@<TRIPOS>SUBSTRUCTURE
     1 7NC         1 TEMP              0 ****  ****    0 ROOT
