@<TRIPOS>MOLECULE
molecule
   19    19     1     0     0
SMALL
bcc


@<TRIPOS>ATOM
      1 O11          0.0000     0.0000     0.0000 o          1 7NF      -0.813800
      2 C47          1.2160     0.0000     0.0000 c          1 7NF       0.796100
      3 C48          1.9530     0.0000     1.2760 cc         1 7NF       0.341800
      4 N9           3.2700     0.0050     1.3350 nc         1 7NF      -0.539000
      5 C50          3.7870     0.0060     2.5260 cd         1 7NF       0.380900
      6 C51          5.2310     0.0110     2.8250 c          1 7NF       0.570600
      7 O10          6.0400     0.0170     1.9180 o          1 7NF      -0.520000
      8 O9           5.6550     0.0110     4.1040 os         1 7NF      -0.437900
      9 C52          7.0900     0.0170     4.3230 c3         1 7NF       0.151400
     10 C53          7.3760     0.0150     5.8270 c3         1 7NF      -0.096100
     11 S            2.5030    -0.0020     3.7290 ss         1 7NF      -0.277300
     12 C49          1.3220     0.0010     2.4920 cd         1 7NF      -0.155400
     13 H2           7.5280    -0.8650     3.8710 h1         1 7NF       0.045700
     14 H3           7.5200     0.9040     3.8750 h1         1 7NF       0.045700
     15 H4           8.4470     0.0200     5.9900 hc         1 7NF       0.041700
     16 H5           6.9460    -0.8720     6.2750 hc         1 7NF       0.041700
     17 H6           6.9390     0.8970     6.2790 hc         1 7NF       0.041700
     18 H7           0.2500    -0.0020     2.6450 h4         1 7NF       0.193000
     19 OXT          1.8900    -0.0060    -1.1670 o          1 7NF      -0.813800
@<TRIPOS>BOND
     1     9    10 1   
     2     9     8 1   
     3     8     6 1   
     4     7     6 2   
     5     6     5 1   
     6     4     5 2   
     7     4     3 1   
     8     5    11 1   
     9     2     3 1   
    10     2     1 1   
    11     3    12 2   
    12    11    12 1   
    13     9    13 1   
    14     9    14 1   
    15    10    15 1   
    16    10    16 1   
    17    10    17 1   
    18    12    18 1   
    19     2    19 1   
@<TRIPOS>SUBSTRUCTURE
     1 7NF         1 TEMP              0 ****  ****    0 ROOT
