@<TRIPOS>MOLECULE
molecule
   17    18     1     0     0
SMALL
bcc


@<TRIPOS>ATOM
      1 N1           0.0000     0.0000     0.0000 na         1 7NI      -0.025100
      2 N2           1.3990     0.0000     0.0000 nc         1 7NI      -0.485100
      3 C3           1.8460     0.0000     1.2240 cd         1 7NI       0.387800
      4 C4           0.5440    -0.0000     3.5100 ca         1 7NI      -0.006000
      5 C5          -0.7080     0.0000     4.0540 ca         1 7NI      -0.187000
      6 C6          -1.8330     0.0010     3.2400 ca         1 7NI      -0.015000
      7 C7          -1.7120     0.0010     1.8790 ca         1 7NI      -0.188200
      8 C8          -0.4480    -0.0040     1.2960 ca         1 7NI       0.020800
      9 C9           0.6950     0.0000     2.1190 ca         1 7NI      -0.266900
     10 N10         -2.9220     0.0020     1.0270 no         1 7NI       0.301200
     11 O11         -4.0280     0.0020     1.5390 o          1 7NI      -0.216000
     12 O12         -2.8130     0.0070    -0.1860 o          1 7NI      -0.216000
     13 H11         -0.5810     0.0000    -0.8150 hn         1 7NI       0.361700
     14 H31          2.8870     0.0000     1.5230 h4         1 7NI       0.069800
     15 H41          1.4160    -0.0010     4.1520 ha         1 7NI       0.144000
     16 H51         -0.8250    -0.0000     5.1310 ha         1 7NI       0.150000
     17 H61         -2.8180     0.0010     3.6900 ha         1 7NI       0.169000
@<TRIPOS>BOND
     1     1     2 1
     2     1     8 1
     3     1    13 1
     4     2     3 2
     5     3     9 1
     6     3    14 1
     7     4     5 ar
     8     4     9 ar
     9     4    15 1
    10     5     6 ar
    11     5    16 1
    12     6     7 ar
    13     6    17 1
    14     7     8 ar
    15     7    10 1
    16     8     9 ar
    17    10    11 1
    18    10    12 1
@<TRIPOS>SUBSTRUCTURE
     1 7NI         1 TEMP              0 ****  ****    0 ROOT
