@<TRIPOS>MOLECULE
7NP
   28    29     1     0     0
SMALL
bcc


@<TRIPOS>ATOM
      1 OAM        -0.0230   -0.2100    0.0460 o         1 7NP     -0.531100
      2 CAJ         1.2050   -0.0670    0.0180 c         1 7NP      0.581700
      3 CAB         2.0130   -0.0290    1.2590 ca        1 7NP     -0.141600
      4 CAI         1.9620    0.0390   -1.2860 c3        1 7NP     -0.157700
      5 CAN         1.0640    0.5000   -2.4130 c3        1 7NP     -0.087100
      6 CAH         3.1630    0.9580   -1.1470 c3        1 7NP     -0.070400
      7 CAG         4.1000    0.4710   -0.0620 c3        1 7NP     -0.038100
      8 CAC         3.3930    0.2360    1.2250 ca        1 7NP     -0.068300
      9 CAD         4.1160    0.2630    2.4210 ca        1 7NP     -0.114000
     10 CAE         3.4920    0.0300    3.6450 ca        1 7NP     -0.173000
     11 CAF         2.1180   -0.2330    3.6700 ca        1 7NP      0.105100
     12 CAA         1.3730   -0.2610    2.4780 ca        1 7NP     -0.096000
     13 OAK         1.3860   -0.4790    4.8170 os        1 7NP     -0.322900
     14 CAL         2.1110   -0.4500    6.0400 c3        1 7NP      0.112700
     15 H1          2.3290   -1.0040   -1.5180 hc        1 7NP      0.074700
     16 H2          0.1600   -0.1530   -2.4750 hc        1 7NP      0.044700
     17 H3          1.6130    0.4570   -3.3830 hc        1 7NP      0.044700
     18 H4          0.7250    1.5500   -2.2390 hc        1 7NP      0.044700
     19 H5          2.8140    1.9980   -0.9110 hc        1 7NP      0.051700
     20 H6          3.7110    1.0010   -2.1240 hc        1 7NP      0.051700
     21 H7          4.5830   -0.4910   -0.3870 hc        1 7NP      0.054200
     22 H8          4.9220    1.2220    0.0840 hc        1 7NP      0.054200
     23 H9          5.1960    0.4730    2.3980 ha        1 7NP      0.135000
     24 H10         4.0820    0.0560    4.5710 ha        1 7NP      0.139000
     25 H11         0.2900   -0.4640    2.5090 ha        1 7NP      0.172000
     26 H12         2.5590    0.5580    6.2110 h1        1 7NP      0.044700
     27 H13         2.9030   -1.2380    6.0490 h1        1 7NP      0.044700
     28 H14         1.3280   -0.6690    6.8110 h1        1 7NP      0.044700
@<TRIPOS>BOND
     1    1    2 2   
     2    2    3 1   
     3    2    4 1   
     4    3    8 ar  
     5    3   12 ar  
     6    4    5 1   
     7    4    6 1   
     8    4   15 1   
     9    5   16 1   
    10    5   17 1   
    11    5   18 1   
    12    6    7 1   
    13    6   19 1   
    14    6   20 1   
    15    7    8 1   
    16    7   21 1   
    17    7   22 1   
    18    8    9 ar  
    19    9   10 ar  
    20    9   23 1   
    21   10   11 ar  
    22   10   24 1   
    23   11   12 ar  
    24   11   13 1   
    25   12   25 1   
    26   13   14 1   
    27   14   26 1   
    28   14   27 1   
    29   14   28 1   
@<TRIPOS>SUBSTRUCTURE
     1 7NP         1 TEMP              0 ****  ****    0 ROOT
