@<TRIPOS>MOLECULE
molecule
   28    29     1     0     0
SMALL
bcc


@<TRIPOS>ATOM
      1 OAM          0.0000     0.0000     0.0000 o          1 7NP      -0.519100
      2 CAJ          1.2120     0.0000     0.0000 c          1 7NP       0.583700
      3 CAB          1.9770     0.0000     1.2630 ca         1 7NP      -0.139600
      4 CAI          1.9970    -0.0060    -1.2960 c3         1 7NP      -0.167700
      5 CAN          1.0950     0.4320    -2.4520 c3         1 7NP      -0.079100
      6 CAH          3.1570     0.9830    -1.1340 c3         1 7NP      -0.073400
      7 CAG          4.0960     0.4880    -0.0370 c3         1 7NP      -0.037100
      8 CAC          3.3520     0.2370     1.2490 ca         1 7NP      -0.078300
      9 CAD          4.0530     0.2380     2.4420 ca         1 7NP      -0.107000
     10 CAE          3.3990     0.0050     3.6380 ca         1 7NP      -0.192000
     11 CAF          2.0320    -0.2350     3.6560 ca         1 7NP       0.123100
     12 CAA          1.3160    -0.2370     2.4720 ca         1 7NP      -0.099000
     13 OAK          1.3960    -0.4650     4.8360 os         1 7NP      -0.325900
     14 CAL          2.1980    -0.4470     6.0180 c3         1 7NP       0.128700
     15 H1           2.3860    -1.0000    -1.4830 hc         1 7NP       0.076700
     16 H2           0.2960    -0.2890    -2.5800 hc         1 7NP       0.043033
     17 H3           0.6710     1.4040    -2.2300 hc         1 7NP       0.043033
     18 H4           1.6780     0.4910    -3.3620 hc         1 7NP       0.043033
     19 H5           2.7560     1.9470    -0.8420 hc         1 7NP       0.053200
     20 H6           3.7060     1.0340    -2.0670 hc         1 7NP       0.053200
     21 H7           4.8440     1.2500     0.1430 hc         1 7NP       0.055200
     22 H8           4.5410    -0.4440    -0.3630 hc         1 7NP       0.055200
     23 H9           5.1200     0.4240     2.4400 ha         1 7NP       0.133000
     24 H10          3.9580     0.0070     4.5660 ha         1 7NP       0.136000
     25 H11          0.2490    -0.4240     2.4810 ha         1 7NP       0.165000
     26 H12          2.6640     0.5250     6.1240 h1         1 7NP       0.041700
     27 H13          1.5740    -0.6440     6.8810 h1         1 7NP       0.041700
     28 H14          2.9650    -1.2090     5.9460 h1         1 7NP       0.041700
@<TRIPOS>BOND
     1    14    13 1
     2    13    11 1
     3    11    12 ar
     4    11    10 ar
     5    12     3 ar
     6    10     9 ar
     7     3     2 1
     8     3     8 ar
     9     9     8 ar
    10     1     2 2
    11     2     4 1
    12     8     7 1
    13     5     4 1
    14     4     6 1
    15     6     7 1
    16     4    15 1
    17     5    16 1
    18     5    17 1
    19     5    18 1
    20     6    19 1
    21     6    20 1
    22     7    21 1
    23     7    22 1
    24     9    23 1
    25    10    24 1
    26    12    25 1
    27    14    26 1
    28    14    27 1
    29    14    28 1
@<TRIPOS>SUBSTRUCTURE
     1 7NP         1 TEMP              0 ****  ****    0 ROOT
