@<TRIPOS>MOLECULE
7NQ
   33    34     1     0     0
SMALL
bcc


@<TRIPOS>ATOM
      1 C4           0.0000     0.0000     0.0000 ca         1 7NQ       0.624900
      2 C5           0.0370    -0.0040    -2.3690 c          1 7NQ       0.546100
      3 C6          -0.6850    -0.0090    -3.6920 c3         1 7NQ      -0.098400
      4 C11          1.2230    -0.0050     4.7380 ca         1 7NQ      -0.137000
      5 C7           0.3370    -0.0060    -4.8310 c3         1 7NQ       0.021900
      6 C8          -0.1080    -0.0020     2.3040 ca         1 7NQ       0.460600
      7 C9          -0.8330    -0.0040     3.5030 ca         1 7NQ      -0.177300
      8 C10         -0.1680    -0.0060     4.6930 ca         1 7NQ      -0.056000
      9 C12          1.9600    -0.0030     3.5900 ca         1 7NQ      -0.030000
     10 C13          1.3080    -0.0020     2.3520 ca         1 7NQ      -0.322600
     11 N1           1.3300     0.0000     0.0000 nb         1 7NQ      -0.703000
     12 N2          -0.6650    -0.0050    -1.2190 ns         1 7NQ      -0.101400
     13 C3           2.0200     0.0000     1.1280 ca         1 7NQ       0.707600
     14 N3          -0.7130    -0.0020     1.1090 nb         1 7NQ      -0.714000
     15 C1           5.5270     0.0040     0.0160 c3         1 7NQ      -0.003100
     16 C2           4.0080     0.0030    -0.1670 c3         1 7NQ       0.208400
     17 O1           3.3730     0.0010     1.1130 os         1 7NQ      -0.421100
     18 O2           1.2490     0.0020    -2.3400 o          1 7NQ      -0.577100
     19 H1          -1.3100     0.8730    -3.7660 hc         1 7NQ       0.026200
     20 H2          -1.3030    -0.8960    -3.7630 hc         1 7NQ       0.026200
     21 H3           1.7270    -0.0070     5.6960 ha         1 7NQ       0.106000
     22 H4          -0.1820    -0.0100    -5.7820 hc         1 7NQ       0.009367
     23 H5           0.9620    -0.8880    -4.7570 hc         1 7NQ       0.009367
     24 H6           0.9540     0.8810    -4.7600 hc         1 7NQ       0.009367
     25 H7          -1.9160    -0.0050     3.4840 ha         1 7NQ       0.120000
     26 H8          -0.7310    -0.0080     5.6190 ha         1 7NQ       0.101000
     27 H9           3.0420    -0.0020     3.6370 ha         1 7NQ       0.116000
     28 H10         -1.6660     0.0200    -1.2430 hn         1 7NQ       0.179500
     29 H11          5.8250    -0.8810     0.5650 hc         1 7NQ       0.009700
     30 H12          5.8230     0.8880     0.5670 hc         1 7NQ       0.009700
     31 H13          6.0080     0.0060    -0.9550 hc         1 7NQ       0.009700
     32 H14          3.7120    -0.8810    -0.7180 h1         1 7NQ       0.020700
     33 H15          3.7100     0.8880    -0.7160 h1         1 7NQ       0.020700
@<TRIPOS>BOND
     1     1    11 ar  
     2     1    12 1   
     3     1    14 ar  
     4     2     3 1   
     5     2    12 1   
     6     2    18 2   
     7     3     5 1   
     8     3    19 1   
     9     3    20 1   
    10     4     8 ar  
    11     4     9 ar  
    12     4    21 1   
    13     5    22 1   
    14     5    23 1   
    15     5    24 1   
    16     6     7 ar  
    17     6    10 ar  
    18     6    14 ar  
    19     7     8 ar  
    20     7    25 1   
    21     8    26 1   
    22     9    10 ar  
    23     9    27 1   
    24    10    13 ar  
    25    11    13 ar  
    26    12    28 1   
    27    13    17 1   
    28    15    16 1   
    29    15    29 1   
    30    15    30 1   
    31    15    31 1   
    32    16    17 1   
    33    16    32 1   
    34    16    33 1   
@<TRIPOS>SUBSTRUCTURE
     1 7NQ         1 TEMP              0 ****  ****    0 ROOT
