@<TRIPOS>MOLECULE
molecule
   33    34     1     0     0
SMALL
bcc


@<TRIPOS>ATOM
      1 C4           0.0000     0.0000     0.0000 ca         1 7NQ       0.848900
      2 C5           0.0370    -0.0040    -2.3690 c          1 7NQ       0.651100
      3 C6          -0.6850    -0.0090    -3.6920 c3         1 7NQ      -0.159400
      4 C11          1.2230    -0.0050     4.7380 ca         1 7NQ      -0.165000
      5 C7           0.3370    -0.0060    -4.8310 c3         1 7NQ      -0.077100
      6 C8          -0.1080    -0.0020     2.3040 ca         1 7NQ       0.501600
      7 C9          -0.8330    -0.0040     3.5030 ca         1 7NQ      -0.199300
      8 C10         -0.1680    -0.0060     4.6930 ca         1 7NQ      -0.085000
      9 C12          1.9600    -0.0030     3.5900 ca         1 7NQ      -0.060000
     10 C13          1.3080    -0.0020     2.3520 ca         1 7NQ      -0.320600
     11 N1           1.3300     0.0000     0.0000 nb         1 7NQ      -0.819000
     12 N2          -0.6650    -0.0050    -1.2190 ns         1 7NQ      -0.538400
     13 C3           2.0200     0.0000     1.1280 ca         1 7NQ       0.740600
     14 N3          -0.7130    -0.0020     1.1090 nb         1 7NQ      -0.816000
     15 C1           5.5270     0.0040     0.0160 c3         1 7NQ      -0.098100
     16 C2           4.0080     0.0030    -0.1670 c3         1 7NQ       0.140400
     17 O1           3.3730     0.0010     1.1130 os         1 7NQ      -0.433100
     18 O2           1.2490     0.0020    -2.3400 o          1 7NQ      -0.538100
     19 H1          -1.3100     0.8730    -3.7660 hc         1 7NQ       0.061200
     20 H2          -1.3030    -0.8960    -3.7630 hc         1 7NQ       0.061200
     21 H3           1.7270    -0.0070     5.6960 ha         1 7NQ       0.133000
     22 H4          -0.1820    -0.0100    -5.7820 hc         1 7NQ       0.045367
     23 H5           0.9620    -0.8880    -4.7570 hc         1 7NQ       0.045367
     24 H6           0.9540     0.8810    -4.7600 hc         1 7NQ       0.045367
     25 H7          -1.9160    -0.0050     3.4840 ha         1 7NQ       0.150000
     26 H8          -0.7310    -0.0080     5.6190 ha         1 7NQ       0.133000
     27 H9           3.0420    -0.0020     3.6370 ha         1 7NQ       0.146000
     28 H10         -1.6660     0.0200    -1.2430 hn         1 7NQ       0.342500
     29 H11          5.8250    -0.8810     0.5650 hc         1 7NQ       0.046700
     30 H12          5.8230     0.8880     0.5670 hc         1 7NQ       0.046700
     31 H13          6.0080     0.0060    -0.9550 hc         1 7NQ       0.046700
     32 H14          3.7120    -0.8810    -0.7180 h1         1 7NQ       0.060700
     33 H15          3.7100     0.8880    -0.7160 h1         1 7NQ       0.060700
@<TRIPOS>BOND
     1     5     3 1   
     2     3     2 1   
     3     2    12 1   
     4     2    18 2   
     5    12     1 1   
     6     1    14 ar  
     7     1    11 ar  
     8    14     6 ar  
     9    11    13 ar  
    10     6     7 ar  
    11     6    10 ar  
    12    13    10 ar  
    13    13    17 1   
    14     7     8 ar  
    15    10     9 ar  
    16    17    16 1   
    17     8     4 ar  
    18     9     4 ar  
    19    16    15 1   
    20     3    19 1   
    21     3    20 1   
    22     4    21 1   
    23     5    22 1   
    24     5    23 1   
    25     5    24 1   
    26     7    25 1   
    27     8    26 1   
    28     9    27 1   
    29    12    28 1   
    30    15    29 1   
    31    15    30 1   
    32    15    31 1   
    33    16    32 1   
    34    16    33 1   
@<TRIPOS>SUBSTRUCTURE
     1 7NQ         1 TEMP              0 ****  ****    0 ROOT
