@<TRIPOS>MOLECULE
molecule
   36    38     1     0     0
SMALL
bcc


@<TRIPOS>ATOM
      1 C01          0.0000     0.0000     0.0000 c3         1 7NT      -0.077100
      2 C02          1.5290     0.0000     0.0000 c3         1 7NT      -0.156400
      3 C03          2.0320     0.0000     1.4210 c          1 7NT       0.644100
      4 O04          1.2430     0.0000     2.3430 o          1 7NT      -0.522100
      5 N05          3.3570     0.0000     1.6680 ns         1 7NT      -0.537400
      6 C06          3.8200     0.0010     2.9780 ca         1 7NT       0.835900
      7 N07          5.1280     0.0000     3.1990 nb         1 7NT      -0.840000
      8 C08          5.6150     0.0010     4.4290 ca         1 7NT       0.720200
      9 N09          6.9810     0.0020     4.6430 nh         1 7NT      -0.693300
     10 C10          7.7140     0.0010     3.3690 c3         1 7NT       0.128800
     11 C11          9.2170    -0.0590     3.6500 c3         1 7NT       0.134400
     12 O12          9.5850     1.0430     4.4860 os         1 7NT      -0.422600
     13 C13          8.8920     1.0740     5.7350 c3         1 7NT       0.134400
     14 C14          7.3850     1.1450     5.4750 c3         1 7NT       0.128800
     15 C15          4.7150     0.0020     5.5270 ca         1 7NT      -0.377400
     16 C16          4.9740     0.0030     6.9540 cc         1 7NT      -0.104200
     17 C17          3.8950     0.0030     7.7130 cd         1 7NT      -0.113400
     18 S18          2.4330     0.0030     6.7450 ss         1 7NT      -0.124900
     19 C19          3.3470     0.0020     5.2430 ca         1 7NT       0.555600
     20 N20          2.9450     0.0060     3.9650 nb         1 7NT      -0.717000
     21 H1          -0.3610    -0.8840     0.5110 hc         1 7NT       0.046367
     22 H2          -0.3610     0.8850     0.5110 hc         1 7NT       0.046367
     23 H3          -0.3610    -0.0000    -1.0210 hc         1 7NT       0.046367
     24 H021         1.8900     0.8840    -0.5110 hc         1 7NT       0.059700
     25 H022         1.8900    -0.8840    -0.5110 hc         1 7NT       0.059700
     26 H051         4.0070     0.0000     0.9070 hn         1 7NT       0.339500
     27 H101         7.4220    -0.8630     2.7850 h1         1 7NT       0.062700
     28 H102         7.4860     0.9080     2.8210 h1         1 7NT       0.062700
     29 H111         9.4530    -0.9880     4.1550 h1         1 7NT       0.057200
     30 H112         9.7620    -0.0000     2.7160 h1         1 7NT       0.057200
     31 H131         9.2020     1.9470     6.2980 h1         1 7NT       0.057200
     32 H132         9.1190     0.1760     6.2970 h1         1 7NT       0.057200
     33 H141         7.1520     2.0680     4.9570 h1         1 7NT       0.062700
     34 H142         6.8540     1.1100     6.4180 h1         1 7NT       0.062700
     35 H161         5.9760     0.0040     7.3660 ha         1 7NT       0.153000
     36 H171         3.9110     0.0040     8.7960 h4         1 7NT       0.174000
@<TRIPOS>BOND
     1     1     2 1   
     2     2     3 1   
     3     3     4 2   
     4     3     5 1   
     5     5     6 1   
     6     6     7 ar  
     7     6    20 ar  
     8     7     8 ar  
     9     8     9 1   
    10     8    15 ar  
    11     9    10 1   
    12     9    14 1   
    13    10    11 1   
    14    11    12 1   
    15    12    13 1   
    16    13    14 1   
    17    15    16 1   
    18    15    19 ar  
    19    16    17 2   
    20    17    18 1   
    21    18    19 1   
    22    19    20 ar  
    23     1    21 1   
    24     1    22 1   
    25     1    23 1   
    26     2    24 1   
    27     2    25 1   
    28     5    26 1   
    29    10    27 1   
    30    10    28 1   
    31    11    29 1   
    32    11    30 1   
    33    13    31 1   
    34    13    32 1   
    35    14    33 1   
    36    14    34 1   
    37    16    35 1   
    38    17    36 1   
@<TRIPOS>SUBSTRUCTURE
     1 7NT         1 TEMP              0 ****  ****    0 ROOT
