@<TRIPOS>MOLECULE
molecule
   35    37     1     0     0
SMALL
bcc


@<TRIPOS>ATOM
      1 O2           0.0000     0.0000     0.0000 oh         1 7NU      -0.597800
      2 C2           1.4280     0.0000     0.0000 c3         1 7NU       0.125100
      3 C3           1.9410     0.0000     1.4440 c3         1 7NU       0.123100
      4 O3           1.5290    -1.2030     2.0960 oh         1 7NU      -0.589800
      5 C1           1.9400     1.2540    -0.7140 c3         1 7NU       0.343900
      6 O5           3.3670     1.2820    -0.6630 os         1 7NU      -0.426600
      7 C5           3.9030     1.3310     0.6620 c3         1 7NU       0.170100
      8 C6           5.4300     1.3850     0.5930 cx         1 7NU       0.043100
      9 O6           6.0920     2.4280     1.3100 op         1 7NU      -0.389600
     10 C7           6.0700     2.5820    -0.1120 cx         1 7NU       0.061400
     11 C4           3.4700     0.0790     1.4320 c3         1 7NU       0.104100
     12 O4           4.0040    -1.0830     0.7920 oh         1 7NU      -0.579800
     13 O1           1.5120     1.2340    -2.0780 os         1 7NU      -0.302900
     14 C8           1.7960     2.3300    -2.8290 ca         1 7NU       0.144100
     15 C9           1.4100     2.3780    -4.1610 ca         1 7NU      -0.179000
     16 C10          1.7000     3.4940    -4.9230 ca         1 7NU      -0.096000
     17 C11          2.3730     4.5620    -4.3600 ca         1 7NU      -0.164000
     18 C12          2.7580     4.5160    -3.0320 ca         1 7NU      -0.096000
     19 C13          2.4660     3.4050    -2.2640 ca         1 7NU      -0.179000
     20 H1          -0.3140    -0.7710    -0.4430 ho         1 7NU       0.419000
     21 H2           1.7950    -0.8810    -0.5120 h1         1 7NU       0.088700
     22 H3           1.5390     0.8580     1.9690 h1         1 7NU       0.048700
     23 H4           1.1060    -0.9900     2.9110 ho         1 7NU       0.408000
     24 H5           1.5450     2.1340    -0.2210 h2         1 7NU       0.044700
     25 H6           3.5280     2.2110     1.1690 h1         1 7NU       0.054700
     26 H7           5.9880     0.4600     0.5170 h1         1 7NU       0.113700
     27 H8           7.0050     2.3830    -0.6210 h1         1 7NU       0.088200
     28 H9           5.3810     3.3260    -0.4940 h1         1 7NU       0.088200
     29 H10          3.8360     0.1380     2.4500 h1         1 7NU       0.052700
     30 H11          4.4030    -1.6420     1.4380 ho         1 7NU       0.409000
     31 H12          0.8830     1.5420    -4.6040 ha         1 7NU       0.140000
     32 H13          1.3990     3.5310    -5.9630 ha         1 7NU       0.130500
     33 H14          2.6000     5.4340    -4.9600 ha         1 7NU       0.129000
     34 H15          3.2830     5.3560    -2.5920 ha         1 7NU       0.130500
     35 H16          2.7670     3.3710    -1.2250 ha         1 7NU       0.140000
@<TRIPOS>BOND
     1    18    17 ar  
     2    18    19 ar  
     3    17    16 ar  
     4    19    14 ar  
     5    16    15 ar  
     6    14    15 ar  
     7    14    13 1   
     8    13     5 1   
     9     5     6 1   
    10     5     2 1   
    11     1     2 1   
    12     6     7 1   
    13     2     3 1   
    14     9    10 1   
    15     9     8 1   
    16     7     8 1   
    17     7    11 1   
    18    10     8 1   
    19     3    11 1   
    20     3     4 1   
    21    11    12 1   
    22     1    20 1   
    23     2    21 1   
    24     3    22 1   
    25     4    23 1   
    26     5    24 1   
    27     7    25 1   
    28     8    26 1   
    29    10    27 1   
    30    10    28 1   
    31    11    29 1   
    32    12    30 1   
    33    15    31 1   
    34    16    32 1   
    35    17    33 1   
    36    18    34 1   
    37    19    35 1   
@<TRIPOS>SUBSTRUCTURE
     1 7NU         1 TEMP              0 ****  ****    0 ROOT
