@<TRIPOS>MOLECULE
7NV
   58    60     1     0     0
SMALL
bcc


@<TRIPOS>ATOM
      1 C15          0.0000     0.0000     0.0000 ca         1 7NV      -0.100000
      2 C16          1.3820     0.0000     0.0000 ca         1 7NV      -0.100000
      3 C17          2.0730     0.0000     1.1970 ca         1 7NV      -0.082000
      4 C23         -0.4710    -4.2320     3.7040 ca         1 7NV      -0.130000
      5 C6           3.5250     6.0980     3.6690 c3         1 7NV      -0.022400
      6 C24         -1.3620    -4.7620     2.7840 ca         1 7NV      -0.118000
      7 C7           4.2280     7.0260     2.6760 c3         1 7NV       0.005900
      8 C9           0.2390    -2.4670     6.5530 c3         1 7NV       0.075300
      9 C13          2.1360    -0.0010     3.7000 c3         1 7NV       0.028000
     10 C30          0.2780    -6.4470     4.2620 ca         1 7NV      -0.044600
     11 C5           3.4870     4.6780     3.1020 c3         1 7NV      -0.044400
     12 C18          1.3830    -0.0010     2.3940 ca         1 7NV      -0.104300
     13 C22          0.3460    -5.0620     4.4390 ca         1 7NV      -0.083300
     14 C25         -1.4410    -6.1310     2.5960 ca         1 7NV       0.019100
     15 C29         -0.6220    -6.9840     3.3330 ca         1 7NV       0.083100
     16 C2           2.1730     1.3970     4.2590 c          1 7NV       0.572100
     17 C27         -1.5840    -8.1770     1.7120 c3         1 7NV       0.421200
     18 C4           2.7850     3.7510     4.0960 c3         1 7NV       0.049000
     19 C19         -0.0000     0.0000     2.3940 ca         1 7NV      -0.082000
     20 C21          1.3130    -4.4770     5.4370 c3         1 7NV       0.120300
     21 N3           2.7480     2.3900     3.5520 ns         1 7NV      -0.194900
     22 O33          0.8130    -7.6940     6.1580 o          1 7NV      -0.879300
     23 O1           1.6870     1.6300     5.3450 o          1 7NV      -0.658100
     24 O32          2.3220    -7.7600     4.5310 o          1 7NV      -0.879300
     25 O26         -2.2220    -6.8870     1.7680 os         1 7NV      -0.337900
     26 O28         -0.8880    -8.2690     2.9690 os         1 7NV      -0.287900
     27 O11          2.5300    -2.6650     3.8490 o          1 7NV      -0.693100
     28 C3          -0.6910    -0.0020     1.1970 ca         1 7NV      -0.100000
     29 N25          1.4640    -0.8900     4.6510 ns         1 7NV      -0.228900
     30 N26          1.1130    -3.0280     5.5200 n          1 7NV      -0.168800
     31 H15         -0.5420    -0.0010    -0.9380 ha         1 7NV       0.097000
     32 H16          1.9230     0.0010    -0.9380 ha         1 7NV       0.100000
     33 H3          -1.7740    -0.0010     1.1970 ha         1 7NV       0.100000
     34 H17          3.1570    -0.0000     1.1970 ha         1 7NV       0.107000
     35 H23         -0.4160    -3.1590     3.8430 ha         1 7NV       0.098000
     36 H24         -2.0010    -4.1020     2.2110 ha         1 7NV       0.090000
     37 H61C         2.5180     6.4560     3.8470 hc         1 7NV       0.015200
     38 H62C         4.0740     6.0860     4.6030 hc         1 7NV       0.015200
     39 H71C         4.2550     8.0320     3.0780 hc         1 7NV       0.000033
     40 H72C         3.6870     7.0270     1.7370 hc         1 7NV       0.000033
     41 H73C         5.2400     6.6770     2.5100 hc         1 7NV       0.000033
     42 H51C         2.9460     4.6780     2.1630 hc         1 7NV       0.017700
     43 H52C         4.4990     4.3280     2.9350 hc         1 7NV       0.017700
     44 H91C        -0.5990    -1.9650     6.0850 h1         1 7NV       0.005033
     45 H92C         0.7970    -1.7570     7.1510 h1         1 7NV       0.005033
     46 H93C        -0.1270    -3.2650     7.1880 h1         1 7NV       0.005033
     47 H13          3.1480    -0.3500     3.5330 h1         1 7NV       0.070700
     48 H25          0.8330    -0.5110     5.3290 hn         1 7NV       0.198500
     49 H41C         3.3260     3.7500     5.0340 h1         1 7NV       0.025700
     50 H42C         1.7730     4.1000     4.2630 h1         1 7NV       0.025700
     51 H19         -0.5420    -0.0010     3.3320 ha         1 7NV       0.107000
     52 H211         1.1400    -4.9210     6.4100 h1         1 7NV       0.061200
     53 H212         2.3280    -4.6840     5.1210 h1         1 7NV       0.061200
     54 HA           3.1910     2.1890     2.6770 hn         1 7NV       0.181500
     55 H271        -2.3260    -8.9630     1.6310 h2         1 7NV      -0.002300
     56 H272        -0.8840    -8.2180     0.8870 h2         1 7NV      -0.002300
     57 C12          1.7310    -2.2110     4.6440 c          1 7NV       0.593100
     58 C31          1.1510    -7.3390     5.0470 c          1 7NV       0.976200
@<TRIPOS>BOND
     1     1     2 ar  
     2     1    28 ar  
     3     1    31 1   
     4     2     3 ar  
     5     2    32 1   
     6     3    12 ar  
     7     3    34 1   
     8     4     6 ar  
     9     4    13 ar  
    10     4    35 1   
    11     5     7 1   
    12     5    11 1   
    13     5    37 1   
    14     5    38 1   
    15     6    14 ar  
    16     6    36 1   
    17     7    39 1   
    18     7    40 1   
    19     7    41 1   
    20     8    30 1   
    21     8    44 1   
    22     8    45 1   
    23     8    46 1   
    24     9    12 1   
    25     9    16 1   
    26     9    29 1   
    27     9    47 1   
    28    10    13 ar  
    29    10    15 ar  
    30    10    58 1   
    31    11    18 1   
    32    11    42 1   
    33    11    43 1   
    34    12    19 ar  
    35    13    20 1   
    36    14    15 ar  
    37    14    25 1   
    38    15    26 1   
    39    16    21 1   
    40    16    23 2   
    41    17    25 1   
    42    17    26 1   
    43    17    55 1   
    44    17    56 1   
    45    18    21 1   
    46    18    49 1   
    47    18    50 1   
    48    19    28 ar  
    49    19    51 1   
    50    20    30 1   
    51    20    52 1   
    52    20    53 1   
    53    21    54 1   
    54    22    58 1   
    55    24    58 1   
    56    27    57 2   
    57    28    33 1   
    58    29    48 1   
    59    29    57 1   
    60    30    57 1   
@<TRIPOS>SUBSTRUCTURE
     1 7NV         1 TEMP              0 ****  ****    0 ROOT
