@<TRIPOS>MOLECULE
molecule
   13    13     1     0     0
SMALL
bcc


@<TRIPOS>ATOM
      1 O1           0.0000     0.0000     0.0000 o          1 7NW      -0.821800
      2 C4"          1.2160     0.0000     0.0000 c          1 7NW       0.798100
      3 C4           1.9520     0.0000     1.2730 cc         1 7NW       0.359800
      4 N3           3.2850     0.0050     1.3460 nc         1 7NW      -0.615000
      5 C2           3.7800     0.0050     2.5340 cd         1 7NW       0.402700
      6 C2"          5.2540     0.0090     2.8490 c3         1 7NW      -0.101400
      7 S1           2.5360    -0.0020     3.7030 ss         1 7NW      -0.321300
      8 C5           1.3410     0.0020     2.4810 cd         1 7NW      -0.186400
      9 OXT          1.8890    -0.0080    -1.1680 o          1 7NW      -0.821800
     10 H1           5.3940     0.0100     3.9240 hc         1 7NW       0.040367
     11 H2           5.7120     0.8950     2.4260 hc         1 7NW       0.040367
     12 H3           5.7170    -0.8740     2.4250 hc         1 7NW       0.040367
     13 H4           0.2700    -0.0000     2.6460 h4         1 7NW       0.187000
@<TRIPOS>BOND
     1     6     5 1   
     2     4     5 2   
     3     4     3 1   
     4     5     7 1   
     5     2     3 1   
     6     2     1 1   
     7     3     8 2   
     8     7     8 1   
     9     2     9 1   
    10     6    10 1   
    11     6    11 1   
    12     6    12 1   
    13     8    13 1   
@<TRIPOS>SUBSTRUCTURE
     1 7NW         1 TEMP              0 ****  ****    0 ROOT
