@<TRIPOS>MOLECULE
molecule
   24    24     1     0     0
SMALL
bcc


@<TRIPOS>ATOM
      1 C8           0.0000     0.0000     0.0000 c          1 7NX       0.471100
      2 O8           1.2150     0.0000     0.0000 o          1 7NX      -0.585500
      3 O7          -0.6710     0.0000     1.1650 os         1 7NX      -0.480900
      4 OXT         -0.6730     0.0070    -1.1650 o          1 7NX      -0.585500
      5 C7           0.1190    -0.0080     2.3830 c3         1 7NX       0.168400
      6 C1          -0.8120    -0.0080     3.5970 c3         1 7NX      -0.073700
      7 C2           0.0160    -0.1420     4.8760 c3         1 7NX      -0.072900
      8 C3          -0.9150    -0.1410     6.0890 c3         1 7NX      -0.079900
      9 C4          -1.7030     1.1700     6.1280 c3         1 7NX      -0.079400
     10 C5          -2.5320     1.3040     4.8480 c3         1 7NX      -0.079900
     11 C6          -1.6000     1.3030     3.6350 c3         1 7NX      -0.072900
     12 H1           0.7400    -0.8950     2.4050 h1         1 7NX       0.026700
     13 H3           0.7480     0.8730     2.4110 h1         1 7NX       0.026700
     14 H4          -1.5020    -0.8400     3.5270 hc         1 7NX       0.053700
     15 H5           0.7030     0.6930     4.9490 hc         1 7NX       0.045700
     16 H6           0.5710    -1.0710     4.8490 hc         1 7NX       0.045700
     17 H7          -0.3260    -0.2330     6.9940 hc         1 7NX       0.031200
     18 H8          -1.6040    -0.9730     6.0140 hc         1 7NX       0.031200
     19 H9          -2.3640     1.1670     6.9860 hc         1 7NX       0.028700
     20 H10         -1.0140     2.0030     6.1990 hc         1 7NX       0.028700
     21 H11         -3.0870     2.2340     4.8750 hc         1 7NX       0.031200
     22 H12         -3.2190     0.4700     4.7750 hc         1 7NX       0.031200
     23 H13         -0.9110     2.1350     3.7100 hc         1 7NX       0.045700
     24 H14         -2.1880     1.3950     2.7300 hc         1 7NX       0.045700
@<TRIPOS>BOND
     1     2     1 1   
     2     1     3 1   
     3     1     4 1   
     4     3     5 1   
     5     5     6 1   
     6     6     7 1   
     7     7     8 1   
     8     8     9 1   
     9     9    10 1   
    10    10    11 1   
    11    11     6 1   
    12     5    12 1   
    13     5    13 1   
    14     6    14 1   
    15     7    15 1   
    16     7    16 1   
    17     8    17 1   
    18     8    18 1   
    19     9    19 1   
    20     9    20 1   
    21    10    21 1   
    22    10    22 1   
    23    11    23 1   
    24    11    24 1   
@<TRIPOS>SUBSTRUCTURE
     1 7NX         1 TEMP              0 ****  ****    0 ROOT
