@<TRIPOS>MOLECULE
molecule
   42    44     1     0     0
SMALL
bcc


@<TRIPOS>ATOM
      1 C2           0.0000     0.0000     0.0000 ce         1 7O0      -0.179200
      2 C5          -2.8210    -0.0010     2.4790 cp         1 7O0      -0.068000
      3 C6          -4.3050     0.0070     2.4890 cp         1 7O0      -0.011000
      4 C7          -5.0040    -0.9080     3.2730 ca         1 7O0      -0.093000
      5 C8          -6.3840    -0.8930     3.2820 ca         1 7O0      -0.089300
      6 C11         -8.5690    -3.2330     2.5790 ca         1 7O0      -0.121500
      7 C16         -7.0730     0.0280     2.5140 ca         1 7O0      -0.133000
      8 C15         -6.4990    -4.1690     3.3380 ca         1 7O0      -0.121500
      9 C14         -6.7470    -5.3120     2.6030 ca         1 7O0      -0.127500
     10 C13         -7.9020    -5.4140     1.8510 ca         1 7O0      -0.135000
     11 C12         -8.8130    -4.3740     1.8390 ca         1 7O0      -0.127500
     12 C17         -6.3840     0.9390     1.7320 ca         1 7O0      -0.135000
     13 C            2.0600     0.0010    -1.2280 c          1 7O0       0.858800
     14 O            1.4520     0.0010    -2.2810 o          1 7O0      -0.840300
     15 C4          -2.1340     0.0000     1.2740 ca         1 7O0      -0.106000
     16 O1           3.4100     0.0000    -1.2280 o          1 7O0      -0.840300
     17 C1           1.3510     0.0000     0.0000 cf         1 7O0      -0.131200
     18 C3          -0.7360    -0.0010     1.2720 ca         1 7O0      -0.028800
     19 C21         -0.0360    -0.0020     2.4860 ca         1 7O0      -0.111000
     20 C20         -0.7240    -0.0030     3.6790 ca         1 7O0      -0.190000
     21 C19         -2.1110    -0.0030     3.6870 ca         1 7O0       0.090100
     22 O2          -2.7830     0.0030     4.8660 oh         1 7O0      -0.519100
     23 C18         -5.0050     0.9330     1.7160 ca         1 7O0      -0.119000
     24 C9          -7.1410    -1.8820     4.1290 c3         1 7O0       0.012200
     25 C10         -7.4110    -3.1280     3.3270 ca         1 7O0      -0.071300
     26 H2          -0.5410     0.0010    -0.9380 ha         1 7O0       0.155000
     27 H4          -4.4650    -1.6290     3.8750 ha         1 7O0       0.143000
     28 H12         -8.1570     0.0360     2.5240 ha         1 7O0       0.117000
     29 H10         -6.0330    -6.1270     2.6120 ha         1 7O0       0.125500
     30 H9          -8.0950    -6.3090     1.2720 ha         1 7O0       0.123000
     31 H8          -9.7190    -4.4550     1.2510 ha         1 7O0       0.125500
     32 H13         -6.9280     1.6580     1.1320 ha         1 7O0       0.122000
     33 H3          -2.6760    -0.0900     0.3400 ha         1 7O0       0.142000
     34 H1           1.8930    -0.0010     0.9380 ha         1 7O0       0.103000
     35 H17          1.0470    -0.0020     2.4860 ha         1 7O0       0.148000
     36 H16         -0.1790    -0.0040     4.6160 ha         1 7O0       0.122000
     37 H15         -2.4150     0.6590     5.4340 ho         1 7O0       0.409000
     38 H14         -4.4660     1.6460     1.1030 ha         1 7O0       0.137000
     39 H6          -8.0810    -1.4440     4.4430 hc         1 7O0       0.050700
     40 H5          -6.5520    -2.1350     5.0020 hc         1 7O0       0.050700
     41 H7          -9.2830    -2.4180     2.5700 ha         1 7O0       0.130000
     42 H11         -5.5930    -4.0880     3.9260 ha         1 7O0       0.130000
@<TRIPOS>BOND
     1     9    10 ar
     2     9     8 ar
     3    10    11 ar
     4     8    25 ar
     5    11     6 ar
     6    25     6 ar
     7    25    24 1
     8    24     5 1
     9     5     7 ar
    10     5     4 ar
    11     7    12 ar
    12     4     3 ar
    13    12    23 ar
    14     3    23 ar
    15     3     2 1
    16    14    13 1
    17    15     2 ar
    18    15    18 ar
    19     2    21 ar
    20     1    18 1
    21     1    17 2
    22    13    17 1
    23    13    16 1
    24    18    19 ar
    25    21    22 1
    26    21    20 ar
    27    19    20 ar
    28     1    26 1
    29     4    27 1
    30     6    41 1
    31     7    28 1
    32     8    42 1
    33     9    29 1
    34    10    30 1
    35    11    31 1
    36    12    32 1
    37    15    33 1
    38    17    34 1
    39    19    35 1
    40    20    36 1
    41    22    37 1
    42    23    38 1
    43    24    39 1
    44    24    40 1
@<TRIPOS>SUBSTRUCTURE
     1 7O0         1 TEMP              0 ****  ****    0 ROOT
