@<TRIPOS>MOLECULE
molecule
   84    87     1     0     0
SMALL
bcc


@<TRIPOS>ATOM
      1 C1           1.8230     0.0000     0.0000 c3         1 7O2      -0.072700
      2 C2           2.3330     0.0000     1.4430 c3         1 7O2      -0.080400
      3 C3           1.8230    -1.2490     2.1640 c3         1 7O2      -0.043100
      4 C6           4.2720    -1.3060     5.1360 ca         1 7O2      -0.124500
      5 N11          2.3130     1.2000    -0.6920 nz         1 7O2      -0.780600
      6 C15         -0.6080    -0.0000    -1.7180 c3         1 7O2      -0.262600
      7 C16         -2.1320     0.1250    -1.7200 c3         1 7O2      -0.087700
      8 C17         -2.5260     1.5660    -1.3880 c3         1 7O2      -0.086400
      9 C18         -4.0470     1.6610    -1.2540 c3         1 7O2       0.026900
     10 C4           2.5040    -0.9320     3.5660 ca         1 7O2      -0.098300
     11 C5           3.7690    -1.4100     3.8530 ca         1 7O2      -0.127000
     12 C7           3.5090    -0.7290     6.1340 ca         1 7O2      -0.127000
     13 C8           2.2420    -0.2570     5.8480 ca         1 7O2      -0.124500
     14 C9           1.7400    -0.3550     4.5640 ca         1 7O2      -0.127000
     15 P12          0.0000     0.0000     0.0000 p5         1 7O2       0.908400
     16 O13         -0.4930     1.2080     0.6980 o          1 7O2      -0.727500
     17 O14         -0.5370    -1.3150     0.7590 o          1 7O2      -0.727500
     18 C19         -4.4970     0.8630    -0.0580 ca         1 7O2      -0.083300
     19 C20         -3.9290     1.0940     1.1800 ca         1 7O2      -0.122250
     20 C21         -4.3410     0.3620     2.2780 ca         1 7O2      -0.123750
     21 C22         -5.3220    -0.6020     2.1370 ca         1 7O2      -0.124000
     22 C23         -5.8900    -0.8340     0.8980 ca         1 7O2      -0.123750
     23 C24         -5.4810    -0.0970    -0.1980 ca         1 7O2      -0.122250
     24 C25         -4.4460     3.1030    -1.0740 ca         1 7O2      -0.083300
     25 C26         -5.4060     3.6620    -1.8970 ca         1 7O2      -0.122250
     26 C27         -5.7720     4.9850    -1.7320 ca         1 7O2      -0.123750
     27 C28         -5.1780     5.7490    -0.7450 ca         1 7O2      -0.124000
     28 C29         -4.2180     5.1900     0.0780 ca         1 7O2      -0.123750
     29 C30         -3.8570     3.8650    -0.0830 ca         1 7O2      -0.122250
     30 C31         -2.6650    -0.2400    -3.0820 c          1 7O2       0.675100
     31 O32         -2.7910     0.6150    -3.9340 o          1 7O2      -0.612100
     32 N33         -3.0010    -1.5150    -3.3550 ns         1 7O2      -0.561900
     33 C34         -3.4190    -1.8900    -4.7080 c3         1 7O2       0.049700
     34 C35         -3.0970    -3.3660    -4.9510 c3         1 7O2      -0.045100
     35 C36         -1.6020    -3.5640    -4.9310 ca         1 7O2      -0.113300
     36 C37         -0.8610    -3.3470    -6.0770 ca         1 7O2      -0.113000
     37 C38          0.5100    -3.5230    -6.0560 ca         1 7O2      -0.116000
     38 C39          1.1380    -3.9270    -4.8920 ca         1 7O2      -0.110000
     39 C40          0.3950    -4.1490    -3.7480 ca         1 7O2      -0.116000
     40 C41         -0.9750    -3.9680    -3.7670 ca         1 7O2      -0.113000
     41 C42         -4.9030    -1.6690    -4.8550 c          1 7O2       0.449100
     42 N43         -5.5130    -1.9470    -6.0230 nz         1 7O2      -0.684400
     43 O44         -5.5470    -1.2420    -3.9200 o          1 7O2      -0.379100
     44 H1           2.1840    -0.8840    -0.5110 hx         1 7O2       0.101700
     45 H2           1.9720     0.8850     1.9530 hc         1 7O2       0.060700
     46 H3           3.4160    -0.0000     1.4430 hc         1 7O2       0.060700
     47 H4           0.7400    -1.2490     2.1650 hc         1 7O2       0.101200
     48 H5           2.1840    -2.1340     1.6530 hc         1 7O2       0.101200
     49 H7           2.8950     1.7280    -0.0730 hn         1 7O2       0.440133
     50 H8           1.5350     1.7600    -0.9790 hn         1 7O2       0.440133
     51 H10         -0.3210    -0.9260    -2.2020 hc         1 7O2       0.047700
     52 H11         -0.1760     0.8360    -2.2540 hc         1 7O2       0.047700
     53 H12         -2.5500    -0.5440    -0.9780 hc         1 7O2       0.102700
     54 H13         -2.0620     1.8610    -0.4550 hc         1 7O2       0.087700
     55 H14         -2.1920     2.2240    -2.1820 hc         1 7O2       0.087700
     56 H15         -4.5140     1.2660    -2.1490 hc         1 7O2       0.045700
     57 H16          4.3020    -2.0050     3.1210 ha         1 7O2       0.135500
     58 H17          3.9030    -0.6500     7.1400 ha         1 7O2       0.134000
     59 H18          1.6440     0.1950     6.6300 ha         1 7O2       0.133000
     60 H19          0.6950    -0.1310     4.3860 ha         1 7O2       0.135500
     61 H21         -3.1610     1.8500     1.2920 ha         1 7O2       0.133000
     62 H22         -3.8960     0.5430     3.2490 ha         1 7O2       0.130000
     63 H23         -5.6440    -1.1780     2.9960 ha         1 7O2       0.131000
     64 H24         -6.6600    -1.5870     0.7870 ha         1 7O2       0.130000
     65 H25         -5.9270    -0.2790    -1.1690 ha         1 7O2       0.133000
     66 H26         -5.8720     3.0640    -2.6710 ha         1 7O2       0.133000
     67 H27         -6.5240     5.4230    -2.3770 ha         1 7O2       0.130000
     68 H28         -5.4630     6.7860    -0.6180 ha         1 7O2       0.131000
     69 H29         -3.7540     5.7880     0.8530 ha         1 7O2       0.130000
     70 H30         -3.1050     3.4270     0.5620 ha         1 7O2       0.133000
     71 H31         -2.9920    -2.2010    -2.6260 hn         1 7O2       0.350500
     72 H32         -2.8900    -1.2820    -5.4320 h1         1 7O2       0.120700
     73 H33         -3.5510    -3.9670    -4.1720 hc         1 7O2       0.054200
     74 H34         -3.4880    -3.6680    -5.9150 hc         1 7O2       0.054200
     75 H35         -1.3540    -3.0310    -6.9890 ha         1 7O2       0.129500
     76 H36          1.0920    -3.3510    -6.9540 ha         1 7O2       0.147000
     77 H37          2.2120    -4.0670    -4.8770 ha         1 7O2       0.144000
     78 H38          0.8870    -4.4660    -2.8360 ha         1 7O2       0.147000
     79 H39         -1.5570    -4.1420    -2.8700 ha         1 7O2       0.129500
     80 H40         -6.3230    -1.3670    -6.1230 hn         1 7O2       0.474133
     81 H41         -4.8820    -1.7710    -6.7800 hn         1 7O2       0.474133
     82 H113         2.8500     0.9270    -1.4920 hn         1 7O2       0.440133
     83 H433        -5.7950    -2.9070    -6.0330 hn         1 7O2       0.474133
     84 H6           5.2640    -1.6790     5.3610 ha         1 7O2       0.133000
@<TRIPOS>BOND
     1    27    26 ar
     2    27    28 ar
     3    26    25 ar
     4    28    29 ar
     5    25    24 ar
     6    29    24 ar
     7    24     9 1
     8     9     8 1
     9     9    18 1
    10     8     7 1
    11    42    41 1
    12    18    23 ar
    13    18    19 ar
    14    31    30 2
    15    23    22 ar
    16     6     7 1
    17     6    15 1
    18    43    41 2
    19     7    30 1
    20    19    20 ar
    21    41    33 1
    22    30    32 1
    23    22    21 ar
    24    17    15 1
    25    20    21 ar
    26    32    33 1
    27    33    34 1
    28    15    16 1
    29    15     1 1
    30    40    39 ar
    31    40    35 ar
    32    39    38 ar
    33     1     2 1
    34     1     5 1
    35    34    35 1
    36     2     3 1
    37    35    36 ar
    38    38    37 ar
    39    14    13 ar
    40    14    10 ar
    41     3    10 1
    42    13    12 ar
    43    36    37 ar
    44    10    11 ar
    45    12     4 ar
    46    11     4 ar
    47     1    44 1
    48     2    45 1
    49     2    46 1
    50     3    47 1
    51     3    48 1
    52     4    84 1
    53     5    49 1
    54     5    50 1
    55     6    51 1
    56     6    52 1
    57     7    53 1
    58     8    54 1
    59     8    55 1
    60     9    56 1
    61    11    57 1
    62    12    58 1
    63    13    59 1
    64    14    60 1
    65    19    61 1
    66    20    62 1
    67    21    63 1
    68    22    64 1
    69    23    65 1
    70    25    66 1
    71    26    67 1
    72    27    68 1
    73    28    69 1
    74    29    70 1
    75    32    71 1
    76    33    72 1
    77    34    73 1
    78    34    74 1
    79    36    75 1
    80    37    76 1
    81    38    77 1
    82    39    78 1
    83    40    79 1
    84    42    80 1
    85    42    81 1
    86    82     5 1
    87    83    42 1
@<TRIPOS>SUBSTRUCTURE
     1 7O2         1 TEMP              0 ****  ****    0 ROOT
