@<TRIPOS>MOLECULE
molecule
   36    38     1     0     0
SMALL
bcc


@<TRIPOS>ATOM
      1 C1           0.0000     0.0000     0.0000 ca         1 7O3      -0.075000
      2 C2           1.4010     0.0000     0.0000 ca         1 7O3      -0.329600
      3 C3           2.1060     0.0000     1.2290 ca         1 7O3       0.492600
      4 C7          -2.6870     0.6090     4.9500 c3         1 7O3      -0.039000
      5 C8           4.0900     0.0000     0.0570 ca         1 7O3       0.725900
      6 C9           2.1490    -0.0000    -1.2000 ca         1 7O3       0.743200
      7 C10          2.2720    -0.1280    -3.5990 ca         1 7O3       0.174600
      8 C11          3.5550    -0.6540    -3.5480 ca         1 7O3      -0.162000
      9 C12          4.2980    -0.7790    -4.7120 ca         1 7O3       0.128100
     10 C13          3.7590    -0.3780    -5.9260 ca         1 7O3      -0.173000
     11 C14          2.4800     0.1460    -5.9760 ca         1 7O3      -0.086000
     12 C15          1.7340     0.2670    -4.8200 ca         1 7O3      -0.028600
     13 Cl1          0.1300     0.9260    -4.8870 cl         1 7O3      -0.113400
     14 O1           5.5550    -1.2930    -4.6640 oh         1 7O3      -0.516100
     15 N3           1.5190    -0.0000    -2.4280 nu         1 7O3      -0.745300
     16 N2           3.4740    -0.0000    -1.1140 nb         1 7O3      -0.823000
     17 N1           3.4480     0.0010     1.2010 nb         1 7O3      -0.770000
     18 C4           1.3920     0.0010     2.4320 ca         1 7O3      -0.222300
     19 C5           0.0120     0.0010     2.4010 ca         1 7O3       0.096600
     20 C           -0.6760    -0.0000     1.1830 ca         1 7O3      -0.137000
     21 N           -0.7060     0.0010     3.5990 ns         1 7O3      -0.482100
     22 C6          -1.8550     0.6990     3.6970 c          1 7O3       0.645100
     23 O           -2.2200     1.3980     2.7740 o          1 7O3      -0.557100
     24 Cl          -4.1510     1.6470     4.7750 cl         1 7O3      -0.135400
     25 H1          -0.5440    -0.0010    -0.9370 ha         1 7O3       0.132000
     26 H2          -2.9900    -0.4190     5.1090 h1         1 7O3       0.083200
     27 H3          -2.1020     0.9490     5.7960 h1         1 7O3       0.083200
     28 H4           5.1730     0.0000     0.0710 h5         1 7O3       0.061100
     29 H5           3.9760    -0.9650    -2.6000 ha         1 7O3       0.200000
     30 H6           4.3400    -0.4740    -6.8340 ha         1 7O3       0.146000
     31 H7           2.0600     0.4570    -6.9250 ha         1 7O3       0.148000
     32 H8           5.5230    -2.2190    -4.8390 ho         1 7O3       0.421000
     33 H9           0.5230     0.0800    -2.4790 hn         1 7O3       0.470800
     34 H10          1.9180     0.0030     3.3790 ha         1 7O3       0.155000
     35 H11         -1.7590    -0.0000     1.1800 ha         1 7O3       0.162000
     36 H12         -0.3780    -0.5340     4.3790 hn         1 7O3       0.328500
@<TRIPOS>BOND
     1    13    12 1   
     2    11    12 ar  
     3    11    10 ar  
     4    12     7 ar  
     5    10     9 ar  
     6     7    15 1   
     7     7     8 ar  
     8     9     8 ar  
     9     9    14 1   
    10    15     6 1   
    11    16     6 ar  
    12    16     5 ar  
    13     6     2 ar  
    14     5    17 ar  
    15     2     1 ar  
    16     2     3 ar  
    17     1    20 ar  
    18    17     3 ar  
    19     3    18 ar  
    20    20    19 ar  
    21    18    19 ar  
    22    19    21 1   
    23    23    22 2   
    24    21    22 1   
    25    22     4 1   
    26     4    24 1   
    27     1    25 1   
    28     4    26 1   
    29     4    27 1   
    30     5    28 1   
    31     8    29 1   
    32    10    30 1   
    33    11    31 1   
    34    14    32 1   
    35    15    33 1   
    36    18    34 1   
    37    20    35 1   
    38    21    36 1   
@<TRIPOS>SUBSTRUCTURE
     1 7O3         1 TEMP              0 ****  ****    0 ROOT
