@<TRIPOS>MOLECULE
7O3
   36    38     1     0     0
SMALL
bcc


@<TRIPOS>ATOM
      1 C1           0.0000     0.0000     0.0000 ca         1 7O3      -0.048000
      2 C2           1.4010     0.0000     0.0000 ca         1 7O3      -0.324600
      3 C3           2.1060     0.0000     1.2290 ca         1 7O3       0.457600
      4 C7          -2.6870     0.6090     4.9500 c3         1 7O3      -0.025000
      5 C8           4.0900     0.0000     0.0570 ca         1 7O3       0.682900
      6 C9           2.1490    -0.0000    -1.2000 ca         1 7O3       0.544200
      7 C10          2.2720    -0.1280    -3.5990 ca         1 7O3       0.020600
      8 C11          3.5550    -0.6540    -3.5480 ca         1 7O3      -0.170000
      9 C12          4.2980    -0.7790    -4.7120 ca         1 7O3       0.154100
     10 C13          3.7590    -0.3780    -5.9260 ca         1 7O3      -0.156000
     11 C14          2.4800     0.1460    -5.9760 ca         1 7O3      -0.054000
     12 C15          1.7340     0.2670    -4.8200 ca         1 7O3      -0.096600
     13 Cl1          0.1300     0.9260    -4.8870 cl         1 7O3      -0.028400
     14 O1           5.5550    -1.2930    -4.6640 oh         1 7O3      -0.497100
     15 N3           1.5190    -0.0000    -2.4280 nu         1 7O3      -0.273300
     16 N2           3.4740    -0.0000    -1.1140 nb         1 7O3      -0.717000
     17 N1           3.4480     0.0010     1.2010 nb         1 7O3      -0.677000
     18 C4           1.3920     0.0010     2.4320 ca         1 7O3      -0.195300
     19 C5           0.0120     0.0010     2.4010 ca         1 7O3      -0.049400
     20 C           -0.6760    -0.0000     1.1830 ca         1 7O3      -0.111000
     21 N           -0.7060     0.0010     3.5990 ns         1 7O3      -0.039100
     22 C6          -1.8550     0.6990     3.6970 c          1 7O3       0.545100
     23 O           -2.2200     1.3980     2.7740 o          1 7O3      -0.605100
     24 Cl          -4.1510     1.6470     4.7750 cl         1 7O3      -0.063400
     25 H1          -0.5440    -0.0010    -0.9370 ha         1 7O3       0.105000
     26 H2          -2.9900    -0.4190     5.1090 h1         1 7O3       0.037200
     27 H3          -2.1020     0.9490     5.7960 h1         1 7O3       0.037200
     28 H4           5.1730     0.0000     0.0710 h5         1 7O3      -0.002900
     29 H5           3.9760    -0.9650    -2.6000 ha         1 7O3       0.180000
     30 H6           4.3400    -0.4740    -6.8340 ha         1 7O3       0.117000
     31 H7           2.0600     0.4570    -6.9250 ha         1 7O3       0.114000
     32 H8           5.5230    -2.2190    -4.8390 ho         1 7O3       0.403000
     33 H9           0.5230     0.0800    -2.4790 hn         1 7O3       0.300800
     34 H10          1.9180     0.0030     3.3790 ha         1 7O3       0.126000
     35 H11         -1.7590    -0.0000     1.1800 ha         1 7O3       0.138000
     36 H12         -0.3780    -0.5340     4.3790 hn         1 7O3       0.170500
@<TRIPOS>BOND
     1     1     2 ar  
     2     1    20 ar  
     3     1    25 1   
     4     2     3 ar  
     5     2     6 ar  
     6     3    17 ar  
     7     3    18 ar  
     8     4    22 1   
     9     4    24 1   
    10     4    26 1   
    11     4    27 1   
    12     5    16 ar  
    13     5    17 ar  
    14     5    28 1   
    15     6    15 1   
    16     6    16 ar  
    17     7     8 ar  
    18     7    12 ar  
    19     7    15 1   
    20     8     9 ar  
    21     8    29 1   
    22     9    10 ar  
    23     9    14 1   
    24    10    11 ar  
    25    10    30 1   
    26    11    12 ar  
    27    11    31 1   
    28    12    13 1   
    29    14    32 1   
    30    15    33 1   
    31    18    19 ar  
    32    18    34 1   
    33    19    20 ar  
    34    19    21 1   
    35    20    35 1   
    36    21    22 1   
    37    21    36 1   
    38    22    23 2   
@<TRIPOS>SUBSTRUCTURE
     1 7O3         1 TEMP              0 ****  ****    0 ROOT
