@<TRIPOS>MOLECULE
molecule
   50    52     1     0     0
SMALL
bcc


@<TRIPOS>ATOM
      1 C6           0.0000     0.0000     0.0000 ca         1 7O6      -0.134600
      2 C5           2.0750     0.0010    -1.2660 c3         1 7O6      -0.004700
      3 C4           2.3320    -1.4420    -1.7070 c3         1 7O6       0.123100
      4 C3           3.2080    -1.4440    -2.9620 c3         1 7O6       0.132100
      5 C2           3.4660    -2.8850    -3.4030 c3         1 7O6       0.132100
      6 C1           4.3410    -2.8860    -4.6570 c3         1 7O6       0.190400
      7 O1           6.8800    -3.8840    -6.1910 o          1 7O6      -0.630500
      8 P1           5.5920    -4.6090    -6.2730 p5         1 7O6       1.192900
      9 O2           4.8270    -4.1920    -7.6270 o          1 7O6      -0.630500
     10 O3           5.8720    -6.1940    -6.2810 o          1 7O6      -0.630500
     11 O4           4.6770    -4.2320    -5.0020 os         1 7O6      -0.587200
     12 O5           2.2200    -3.5240    -3.6910 oh         1 7O6      -0.606800
     13 O6           4.4530    -0.8040    -2.6740 oh         1 7O6      -0.612800
     14 O7           1.0880    -2.0810    -1.9960 oh         1 7O6      -0.567800
     15 N1           1.3380     0.0000     0.0000 na         1 7O6      -0.038100
     16 C7          -0.7340    -0.0060    -1.1960 ca         1 7O6      -0.063000
     17 C8          -2.1200    -0.0120    -1.1420 ca         1 7O6      -0.216600
     18 C9          -2.8930    -0.0180    -2.3950 c          1 7O6       0.575500
     19 C10         -2.8000    -0.0110     0.0900 ca         1 7O6      -0.018300
     20 C11         -4.3060    -0.0180     0.1000 c3         1 7O6      -0.056800
     21 C12         -2.1280    -0.0060     1.2690 ca         1 7O6      -0.215300
     22 C13         -0.7210     0.0000     1.2750 ca         1 7O6       0.453600
     23 N2          -0.0300    -0.0010     2.4170 nb         1 7O6      -0.646000
     24 C14          1.9870     0.0000     1.1460 ca         1 7O6       0.016000
     25 N3           3.3730    -0.0010     1.1720 ns         1 7O6      -0.451100
     26 C15          1.2870    -0.0020     2.3780 ca         1 7O6       0.302800
     27 C16          2.0840    -0.0020     3.6300 c          1 7O6       0.609000
     28 O8           1.5370    -0.0030     4.7150 o          1 7O6      -0.571500
     29 N4           3.4290    -0.0010     3.5310 ns         1 7O6      -0.564500
     30 C17          4.0410    -0.0000     2.3370 c          1 7O6       0.815500
     31 O9           5.2560    -0.0000     2.3080 o          1 7O6      -0.637500
     32 O10         -2.3220     0.0800    -3.4600 o          1 7O6      -0.527100
     33 H1           1.4930     0.5110    -2.0230 h1         1 7O6       0.085700
     34 H2           3.0210     0.5110    -1.1330 h1         1 7O6       0.085700
     35 H3           2.8380    -1.9780    -0.9130 h1         1 7O6       0.048700
     36 H4           2.7020    -0.9080    -3.7560 h1         1 7O6       0.063700
     37 H5           3.9710    -3.4210    -2.6100 h1         1 7O6       0.046700
     38 H6           5.2470    -2.3250    -4.4660 h1         1 7O6       0.037700
     39 H7           3.7990    -2.4290    -5.4760 h1         1 7O6       0.037700
     40 H10          2.3360    -4.4600    -3.6790 ho         1 7O6       0.422000
     41 H11          4.6110    -0.1240    -3.3080 ho         1 7O6       0.415000
     42 H12          1.0180    -2.8750    -1.4910 ho         1 7O6       0.416000
     43 H13         -0.2300     0.1530    -2.1420 ha         1 7O6       0.169000
     44 H14         -3.9700    -0.1360    -2.3670 h4         1 7O6      -0.003800
     45 H15         -4.6660    -0.9170    -0.3850 hc         1 7O6       0.047700
     46 H16         -4.6610     0.0080     1.1230 hc         1 7O6       0.047700
     47 H17         -4.6750     0.8510    -0.4320 hc         1 7O6       0.047700
     48 H18         -2.6750    -0.0060     2.2040 ha         1 7O6       0.156000
     49 H19          3.8820    -0.0010     0.3110 hn         1 7O6       0.374500
     50 H20          3.9820    -0.0000     4.3650 hn         1 7O6       0.369500
@<TRIPOS>BOND
     1     7     8 1
     2     5     6 1
     3     5    12 1
     4     5     4 1
     5    11     6 1
     6    11     8 1
     7     8     9 1
     8     8    10 1
     9    13     4 1
    10     4     3 1
    11     3     2 1
    12     3    14 1
    13     2    15 1
    14    31    30 2
    15    25    30 1
    16    25    24 1
    17    15    24 1
    18    15     1 2
    19    30    29 1
    20    32    18 2
    21    16     1 ar
    22    16    17 ar
    23    24    26 ar
    24     1    22 ar
    25    18    17 1
    26    17    19 ar
    27    29    27 1
    28    26    27 1
    29    26    23 ar
    30    22    23 ar
    31    22    21 ar
    32    27    28 2
    33    19    21 ar
    34    19    20 1
    35     2    33 1
    36     2    34 1
    37     3    35 1
    38     4    36 1
    39     5    37 1
    40     6    38 1
    41     6    39 1
    42    12    40 1
    43    13    41 1
    44    14    42 1
    45    16    43 1
    46    18    44 1
    47    20    45 1
    48    20    46 1
    49    20    47 1
    50    21    48 1
    51    25    49 1
    52    29    50 1
@<TRIPOS>SUBSTRUCTURE
     1 7O6         1 TEMP              0 ****  ****    0 ROOT
