@<TRIPOS>MOLECULE
molecule
   29    30     1     0     0
SMALL
bcc


@<TRIPOS>ATOM
      1 Cl           0.0000     0.0000     0.0000 cl         1 7O8      -0.076400
      2 C17          1.7360     0.0000     0.0000 ca         1 7O8       0.049400
      3 C16          2.4290     0.0000     1.1980 ca         1 7O8      -0.116500
      4 C15          3.8100     0.0010     1.1970 ca         1 7O8      -0.096500
      5 C18          2.4280    -0.0050    -1.1980 ca         1 7O8      -0.116500
      6 C19          3.8090    -0.0040    -1.1980 ca         1 7O8      -0.096500
      7 C14          4.5010     0.0020    -0.0010 ca         1 7O8      -0.109300
      8 C13          6.0080     0.0030    -0.0010 c3         1 7O8       0.022000
      9 S12          6.6150    -1.7060    -0.0010 ss         1 7O8      -0.066000
     10 C10          8.3650    -1.5060    -0.0020 cc         1 7O8       0.149800
     11 C9           9.2590    -2.5070    -0.0030 cd         1 7O8      -0.191000
     12 C8          10.5830    -2.1010    -0.0030 cd         1 7O8       0.037000
     13 S11          9.2100     0.0370    -0.0100 ss         1 7O8      -0.027800
     14 C7          10.7670    -0.7810    -0.0040 cc         1 7O8      -0.365600
     15 S1          12.3340     0.0250    -0.0040 sy         1 7O8       1.263200
     16 O2          12.1200     1.3200     0.5400 o          1 7O8      -0.517800
     17 O3          13.2620    -0.9040     0.5410 o          1 7O8      -0.517800
     18 N4          12.7700     0.2480    -1.5870 nz         1 7O8      -0.806500
     19 H1           1.8880    -0.0010     2.1370 ha         1 7O8       0.158000
     20 H2           4.3520     0.0030     2.1350 ha         1 7O8       0.140500
     21 H3           1.8870    -0.0100    -2.1370 ha         1 7O8       0.158000
     22 H4           4.3510    -0.0060    -2.1360 ha         1 7O8       0.140500
     23 H5           6.3690     0.5140     0.8830 h1         1 7O8       0.078200
     24 H6           6.3680     0.5140    -0.8860 h1         1 7O8       0.078200
     25 H8           8.9680    -3.5500    -0.0020 ha         1 7O8       0.188000
     26 H10         11.4070    -2.8030    -0.0020 ha         1 7O8       0.169000
     27 H13         12.0670     0.7850    -2.0540 hn         1 7O8       0.491133
     28 H14         13.6430     0.7360    -1.6260 hn         1 7O8       0.491133
     29 H43         12.8650    -0.6410    -2.0360 hn         1 7O8       0.491133
@<TRIPOS>BOND
     1     3     4 ar  
     2     3     2 ar  
     3     4     7 ar  
     4     2     1 1   
     5     2     5 ar  
     6     7     8 1   
     7     7     6 ar  
     8     8     9 1   
     9     9    10 1   
    10    10    11 2   
    11    10    13 1   
    12     5     6 ar  
    13    11    12 1   
    14    13    14 1   
    15    12    14 2   
    16    14    15 1   
    17    18    15 1   
    18    17    15 2   
    19    15    16 2   
    20     3    19 1   
    21     4    20 1   
    22     5    21 1   
    23     6    22 1   
    24     8    23 1   
    25     8    24 1   
    26    11    25 1   
    27    12    26 1   
    28    18    27 1   
    29    18    28 1   
    30    29    18 1   
@<TRIPOS>SUBSTRUCTURE
     1 7O8         1 TEMP              0 ****  ****    0 ROOT
