@<TRIPOS>MOLECULE
7O8
   29    30     1     0     0
SMALL
bcc


@<TRIPOS>ATOM
      1 Cl           0.0000     0.0000     0.0000 cl         1 7O8       0.011600
      2 C17          1.7360     0.0000     0.0000 ca         1 7O8      -0.019600
      3 C16          2.4290     0.0000     1.1980 ca         1 7O8      -0.092000
      4 C15          3.8100     0.0010     1.1970 ca         1 7O8      -0.065000
      5 C18          2.4280    -0.0050    -1.1980 ca         1 7O8      -0.092000
      6 C19          3.8090    -0.0040    -1.1980 ca         1 7O8      -0.065000
      7 C14          4.5010     0.0020    -0.0010 ca         1 7O8      -0.122300
      8 C13          6.0080     0.0030    -0.0010 c3         1 7O8       0.152000
      9 S12          6.6150    -1.7060    -0.0010 ss         1 7O8      -0.192000
     10 C10          8.3650    -1.5060    -0.0020 cc         1 7O8       0.248800
     11 C9           9.2590    -2.5070    -0.0030 cd         1 7O8      -0.165000
     12 C8          10.5830    -2.1010    -0.0030 cd         1 7O8       0.091000
     13 S11          9.2100     0.0370    -0.0100 ss         1 7O8      -0.163800
     14 C7          10.7670    -0.7810    -0.0040 cc         1 7O8      -0.195600
     15 S1          12.3340     0.0250    -0.0040 sy         1 7O8       0.969200
     16 O2          12.1200     1.3200     0.5400 o          1 7O8      -0.487300
     17 O3          13.2620    -0.9040     0.5410 o          1 7O8      -0.487300
     18 N4          12.7700     0.2480    -1.5870 nz         1 7O8      -0.128500
     19 H1           1.8880    -0.0010     2.1370 ha         1 7O8       0.124500
     20 H2           4.3520     0.0030     2.1350 ha         1 7O8       0.110500
     21 H3           1.8870    -0.0100    -2.1370 ha         1 7O8       0.124500
     22 H4           4.3510    -0.0060    -2.1360 ha         1 7O8       0.110500
     23 H5           6.3690     0.5140     0.8830 h1         1 7O8       0.049200
     24 H6           6.3680     0.5140    -0.8860 h1         1 7O8       0.049200
     25 H8           8.9680    -3.5500    -0.0020 ha         1 7O8       0.161000
     26 H10         11.4070    -2.8030    -0.0020 ha         1 7O8       0.133000
     27 H13         12.0670     0.7850    -2.0540 hn         1 7O8       0.313800
     28 H14         13.6430     0.7360    -1.6260 hn         1 7O8       0.313800
     29 H43         12.8650    -0.6410    -2.0360 hn         1 7O8       0.313800
@<TRIPOS>BOND
     1     1     2 1   
     2     2     3 ar  
     3     2     5 ar  
     4     3     4 ar  
     5     3    19 1   
     6     4     7 ar  
     7     4    20 1   
     8     5     6 ar  
     9     5    21 1   
    10     6     7 ar  
    11     6    22 1   
    12     7     8 1   
    13     8     9 1   
    14     8    23 1   
    15     8    24 1   
    16     9    10 1   
    17    10    11 2   
    18    10    13 1   
    19    11    12 1   
    20    11    25 1   
    21    12    14 2   
    22    12    26 1   
    23    13    14 1   
    24    14    15 1   
    25    15    16 2   
    26    15    17 2   
    27    15    18 1   
    28    18    27 1   
    29    18    28 1   
    30    18    29 1   
@<TRIPOS>SUBSTRUCTURE
     1 7O8         1 TEMP              0 ****  ****    0 ROOT
