@<TRIPOS>MOLECULE
molecule
   46    47     1     0     0
SMALL
bcc


@<TRIPOS>ATOM
      1 C            0.0000     0.0000     0.0000 c          1 7O9       0.879600
      2 F2           5.9410   -12.3050     4.5470 f          1 7O9      -0.225633
      3 F            5.7480   -11.0310     6.4340 f          1 7O9      -0.225633
      4 F1           7.4780   -10.6730     4.9860 f          1 7O9      -0.225633
      5 C12          5.2880   -10.0330     4.3300 ca         1 7O9      -0.169300
      6 C11          5.7120    -8.7210     4.2140 ca         1 7O9      -0.094000
      7 C10          4.9470    -7.8050     3.5220 ca         1 7O9      -0.093500
      8 C14          4.1000   -10.4370     3.7490 ca         1 7O9      -0.094000
      9 C15          3.3250    -9.5320     3.0540 ca         1 7O9      -0.093500
     10 C9           3.7430    -8.2040     2.9380 ca         1 7O9      -0.107600
     11 C8           2.9190    -7.2290     2.1950 c          1 7O9       0.654700
     12 O5           3.2880    -6.0750     2.0910 o          1 7O9      -0.552100
     13 C7           0.9300    -6.6750     1.0130 ca         1 7O9       0.024600
     14 C6           1.4870    -5.6030     0.3290 ca         1 7O9      -0.095000
     15 C16         -0.4510    -6.8120     1.0770 ca         1 7O9      -0.165000
     16 C17         -1.2650    -5.8800     0.4650 ca         1 7O9      -0.129000
     17 C18         -0.7070    -4.8110    -0.2130 ca         1 7O9      -0.108000
     18 C5           0.6680    -4.6740    -0.2820 ca         1 7O9      -0.058300
     19 C4           1.2710    -3.5070    -1.0210 c3         1 7O9       0.200700
     20 C2           2.0180    -1.2500    -0.7210 c3         1 7O9       0.028100
     21 C3           3.5190    -1.3120    -0.6150 c          1 7O9       0.833600
     22 O3           4.0470    -2.2580    -0.0790 o          1 7O9      -0.826300
     23 O2           4.2690    -0.3190    -1.1170 o          1 7O9      -0.826300
     24 C1           1.5070     0.0000     0.0000 c3         1 7O9       0.014500
     25 N1           1.9970     0.0000     1.3850 nz         1 7O9      -0.783600
     26 O1          -0.6710     0.3970    -1.0920 o          1 7O9      -0.812300
     27 O           -0.6040    -0.3630     0.9810 o          1 7O9      -0.812300
     28 H1           6.6460    -8.4130     4.6680 ha         1 7O9       0.147000
     29 H2           5.2780    -6.7780     3.4340 ha         1 7O9       0.154500
     30 H3           3.7760   -11.4670     3.8400 ha         1 7O9       0.147000
     31 H4           2.3930    -9.8490     2.6010 ha         1 7O9       0.154500
     32 H5           1.5030    -8.5860     1.6290 hn         1 7O9       0.313500
     33 H6           2.5620    -5.5320     0.2190 ha         1 7O9       0.175000
     34 H7          -0.8880    -7.6740     1.5660 ha         1 7O9       0.113000
     35 H8          -2.3420    -5.9850     0.5160 ha         1 7O9       0.124000
     36 H9          -1.3470    -4.0850    -0.6990 ha         1 7O9       0.149000
     37 H10          0.6100    -3.2080    -1.8250 h1         1 7O9       0.038200
     38 H11          2.2310    -3.7960    -1.4310 h1         1 7O9       0.038200
     39 H12          1.7310    -1.2060    -1.7650 h1         1 7O9       0.085700
     40 H14          1.8680     0.8850    -0.5110 hx         1 7O9       0.116700
     41 H15          1.5280     0.7160     1.9040 hn         1 7O9       0.440467
     42 H16          1.8130    -0.8900     1.8040 hn         1 7O9       0.440467
     43 H13          2.9820     0.1740     1.3900 hn         1 7O9       0.440467
     44 O4           1.4480    -2.4130    -0.1190 os         1 7O9      -0.417600
     45 N            1.7570    -7.6180     1.6320 ns         1 7O9      -0.472100
     46 C13          6.1290   -11.0280     5.0880 c3         1 7O9       0.671200
@<TRIPOS>BOND
     1    22    21 1   
     2    19    18 1   
     3    19    44 1   
     4    23    21 1   
     5    21    20 1   
     6    17    18 ar  
     7    17    16 ar  
     8    18    14 ar  
     9    44    20 1   
    10    16    15 ar  
    11    20    24 1   
    12    25    24 1   
    13    14    13 ar  
    14    15    13 ar  
    15    24     1 1   
    16    13    45 1   
    17    27     1 1   
    18     1    26 1   
    19    45    11 1   
    20    12    11 2   
    21    11    10 1   
    22    10     7 ar  
    23    10     9 ar  
    24     7     6 ar  
    25     9     8 ar  
    26     6     5 ar  
    27     8     5 ar  
    28     5    46 1   
    29    46     3 1   
    30    46     4 1   
    31    46     2 1   
    32     6    28 1   
    33     7    29 1   
    34     8    30 1   
    35     9    31 1   
    36    45    32 1   
    37    14    33 1   
    38    15    34 1   
    39    16    35 1   
    40    17    36 1   
    41    19    37 1   
    42    19    38 1   
    43    20    39 1   
    44    24    40 1   
    45    25    41 1   
    46    25    42 1   
    47    43    25 1   
@<TRIPOS>SUBSTRUCTURE
     1 7O9         1 TEMP              0 ****  ****    0 ROOT
