@<TRIPOS>MOLECULE
molecule
   24    23     1     0     0
SMALL
bcc


@<TRIPOS>ATOM
      1 OAB          0.0000     0.0000     0.0000 o          1 7OD      -0.846800
      2 CAA          1.2150     0.0000     0.0000 c          1 7OD       0.880800
      3 OAI          1.8890     0.0000     1.1680 o          1 7OD      -0.846800
      4 CAC          1.9490    -0.0080    -1.2730 ce         1 7OD      -0.122400
      5 CAK          3.4570    -0.0080    -1.2720 c3         1 7OD      -0.053900
      6 CAD          1.2840    -0.0140    -2.4250 c2         1 7OD      -0.223200
      7 CAE          2.0320    -0.1460    -3.7260 c3         1 7OD      -0.050200
      8 CAF          1.4660    -1.3210    -4.5230 c3         1 7OD       0.153100
      9 OAH          1.7150    -2.5400    -3.8190 oh         1 7OD      -0.596800
     10 CAG          2.1390    -1.3790    -5.8960 c3         1 7OD      -0.104400
     11 CAJ          1.4850    -2.4760    -6.7390 c3         1 7OD      -0.093100
     12 HAM          3.8180     0.7680    -1.9350 hc         1 7OD       0.031367
     13 HAN          3.8180    -0.9710    -1.6130 hc         1 7OD       0.031367
     14 HAO          3.8170     0.1780    -0.2680 hc         1 7OD       0.031367
     15 HAD          0.2010    -0.0130    -2.4230 ha         1 7OD       0.137000
     16 HAF          1.9210     0.7660    -4.3000 hc         1 7OD       0.041700
     17 HAE          3.0820    -0.3190    -3.5240 hc         1 7OD       0.041700
     18 HAG          0.3980    -1.1900    -4.6510 h1         1 7OD       0.026700
     19 HAP          0.9180    -3.0420    -3.7680 ho         1 7OD       0.394000
     20 HAH          2.0240    -0.4240    -6.3950 hc         1 7OD       0.043700
     21 HAI          3.1930    -1.5980    -5.7730 hc         1 7OD       0.043700
     22 HAK          1.8050    -2.3780    -7.7700 hc         1 7OD       0.027367
     23 HAL          0.4080    -2.3800    -6.6840 hc         1 7OD       0.027367
     24 HAJ          1.7810    -3.4470    -6.3610 hc         1 7OD       0.027367
@<TRIPOS>BOND
     1    11    10 1   
     2    10     8 1   
     3     8     9 1   
     4     8     7 1   
     5     7     6 1   
     6     6     4 2   
     7     4     5 1   
     8     4     2 1   
     9     1     2 1   
    10     2     3 1   
    11     5    12 1   
    12     5    13 1   
    13     5    14 1   
    14     6    15 1   
    15     7    16 1   
    16     7    17 1   
    17     8    18 1   
    18     9    19 1   
    19    10    20 1   
    20    10    21 1   
    21    11    22 1   
    22    11    23 1   
    23    11    24 1   
@<TRIPOS>SUBSTRUCTURE
     1 7OD         1 TEMP              0 ****  ****    0 ROOT
