@<TRIPOS>MOLECULE
molecule
   49    53     1     0     0
SMALL
bcc


@<TRIPOS>ATOM
      1 C5           0.0000     0.0000     0.0000 cc         1 7OG       0.457500
      2 C8           1.7760     0.0000     1.2470 cd         1 7OG       0.592200
      3 C10         -2.1800     0.0170     3.0510 c3         1 7OG      -0.045400
      4 N12         -1.9790     1.1980     5.1770 n          1 7OG      -0.486800
      5 C13         -1.6420     1.2710     3.7480 c3         1 7OG       0.092000
      6 C15         -2.1280    -1.2380     5.2130 c3         1 7OG      -0.097400
      7 C20         -2.1920     5.1870     3.5210 ca         1 7OG      -0.048000
      8 C21         -3.4570     5.8130     3.6610 ca         1 7OG      -0.022000
      9 C22         -4.4310     5.2380     4.4980 ca         1 7OG      -0.123000
     10 C26         -1.5130     6.9190     2.0190 ca         1 7OG      -0.126000
     11 C28         -3.7170     7.0020     2.9590 ca         1 7OG      -0.121000
     12 C27         -2.7550     7.5350     2.1550 ca         1 7OG      -0.117000
     13 C25         -1.2240     5.7680     2.6830 ca         1 7OG      -0.112000
     14 C23         -4.1570     4.0890     5.1680 ca         1 7OG      -0.085000
     15 C19         -1.9250     4.0030     4.2260 ca         1 7OG      -0.094000
     16 C18         -2.9070     3.4590     5.0380 ca         1 7OG      -0.140600
     17 C2          -2.6390     0.0040     0.6050 cc         1 7OG      -0.315300
     18 C1          -1.7290     0.0080     1.6120 cd         1 7OG       0.067400
     19 C3          -2.1910    -0.0010    -0.7210 cc         1 7OG       0.492600
     20 C16         -2.6340     2.2090     5.7800 c          1 7OG       0.676700
     21 C14         -1.6440    -1.2290     3.7610 c3         1 7OG      -0.081400
     22 C11         -1.5890     0.0020     5.9350 c3         1 7OG       0.107000
     23 N7           1.3280     0.0000     0.0000 nd         1 7OG      -0.441300
     24 N9           0.7630     0.0110     2.0800 nc         1 7OG      -0.629100
     25 N4          -0.9040    -0.0000    -0.9870 nd         1 7OG      -0.669000
     26 N6          -0.4040     0.0070     1.3050 na         1 7OG       0.013200
     27 O17         -3.0020     2.0950     6.9330 o          1 7OG      -0.600100
     28 H1           2.8210    -0.0080     1.5360 h5         1 7OG       0.093800
     29 H2          -3.2620     0.0180     3.0950 hc         1 7OG       0.077700
     30 H3          -0.5660     1.3160     3.6320 h1         1 7OG       0.072700
     31 H4          -2.0980     2.1510     3.3120 h1         1 7OG       0.072700
     32 H5          -3.2110    -1.2240     5.2320 hc         1 7OG       0.054200
     33 H6          -1.7640    -2.1310     5.7080 hc         1 7OG       0.054200
     34 H11         -0.7650     7.3650     1.3730 ha         1 7OG       0.132000
     35 H12         -4.6780     7.4910     3.0550 ha         1 7OG       0.135000
     36 H13         -2.9590     8.4510     1.6150 ha         1 7OG       0.131000
     37 H14         -0.2530     5.3010     2.5660 ha         1 7OG       0.135000
     38 H15         -4.9130     3.6490     5.8080 ha         1 7OG       0.148000
     39 H16         -0.9630     3.5140     4.1280 ha         1 7OG       0.144000
     40 H17         -3.6880     0.1660     0.8210 ha         1 7OG       0.165000
     41 H18         -2.0080    -2.1150     3.2550 hc         1 7OG       0.060700
     42 H19         -0.5610    -1.2150     3.7430 hc         1 7OG       0.060700
     43 H20         -2.0100     0.0510     6.9320 h1         1 7OG       0.066700
     44 H21         -0.5090    -0.0540     5.9930 h1         1 7OG       0.066700
     45 C24         -3.1900    -0.0060    -1.8500 c3         1 7OG      -0.146400
     46 H7          -5.3990     5.7110     4.6090 ha         1 7OG       0.138000
     47 H8          -2.6650    -0.0640    -2.7960 hc         1 7OG       0.064033
     48 H9          -3.7770     0.9040    -1.8170 hc         1 7OG       0.064033
     49 H10         -3.8450    -0.8630    -1.7480 hc         1 7OG       0.064033
@<TRIPOS>BOND
     1    27    20 2   
     2    22     6 1   
     3    22     4 1   
     4     6    21 1   
     5    20     4 1   
     6    20    16 1   
     7     4     5 1   
     8    21     3 1   
     9    14    16 ar  
    10    14     9 ar  
    11    16    15 ar  
    12     5     3 1   
    13     3    18 1   
    14     9     8 ar  
    15    15     7 ar  
    16    17    18 2   
    17    17    19 1   
    18    18    26 1   
    19     8     7 ar  
    20     8    11 ar  
    21     7    13 ar  
    22    45    19 1   
    23    11    12 ar  
    24    19    25 2   
    25    26    24 1   
    26    26     1 1   
    27    24     2 2   
    28    13    10 ar  
    29    25     1 1   
    30     1    23 2   
    31    12    10 ar  
    32     2    23 1   
    33     2    28 1   
    34     3    29 1   
    35     5    30 1   
    36     5    31 1   
    37     6    32 1   
    38     6    33 1   
    39     9    46 1   
    40    45    47 1   
    41    45    48 1   
    42    45    49 1   
    43    10    34 1   
    44    11    35 1   
    45    12    36 1   
    46    13    37 1   
    47    14    38 1   
    48    15    39 1   
    49    17    40 1   
    50    21    41 1   
    51    21    42 1   
    52    22    43 1   
    53    22    44 1   
@<TRIPOS>SUBSTRUCTURE
     1 7OG         1 TEMP              0 ****  ****    0 ROOT
