@<TRIPOS>MOLECULE
7OJ
   43    46     1     0     0
SMALL
bcc


@<TRIPOS>ATOM
      1 N3           0.0000     0.0000     0.0000 nc         1 7OJ      -0.523000
      2 C4           1.3380     0.0000     0.0000 cc         1 7OJ       0.224500
      3 C6           1.3580     0.0020    -2.3650 cc         1 7OJ      -0.140600
      4 C8           3.4590    -0.0000     0.4650 cd         1 7OJ       0.642200
      5 C13          3.7350     1.2680    -5.0890 c3         1 7OJ       0.369600
      6 C20          4.3200    -2.5370    -8.2700 ca         1 7OJ       0.007000
      7 C21          5.1910    -2.5010    -9.3380 ca         1 7OJ      -0.019900
      8 C22          6.9380    -1.6860    -7.9000 ca         1 7OJ      -0.129000
      9 C23          6.0720    -1.7090    -6.8270 ca         1 7OJ      -0.064000
     10 C18          4.7560    -2.1400    -7.0040 ca         1 7OJ      -0.164600
     11 C27          6.4990    -2.0760    -9.1560 ca         1 7OJ       0.154900
     12 C1           0.0000     0.0030    -2.3540 cd         1 7OJ      -0.232300
     13 C2          -0.6750     0.0020    -1.1270 cd         1 7OJ       0.406600
     14 C12          2.9930     1.2510    -3.7500 c3         1 7OJ      -0.088400
     15 C16          2.9960    -1.2470    -3.7480 c3         1 7OJ       0.036000
     16 C14          4.6370     0.0340    -5.1840 c3         1 7OJ      -0.024000
     17 C11          2.1130     0.0020    -3.6690 c3         1 7OJ       0.005600
     18 N7           2.2360     0.0000     0.9790 nd         1 7OJ      -0.385300
     19 N9           3.3870     0.0000    -0.8450 nc         1 7OJ      -0.800100
     20 N5           2.0270     0.0010    -1.1810 na         1 7OJ       0.501200
     21 N15          3.8200    -1.1670    -4.9620 n          1 7OJ      -0.141800
     22 O19          2.7900    -2.8070    -5.9310 o          1 7OJ      -0.626100
     23 F28          7.2850    -2.0870   -10.2710 f          1 7OJ      -0.120900
     24 F26          4.5160     2.4260    -5.1740 f          1 7OJ      -0.214300
     25 H1           4.3850     0.0000     1.0260 h5         1 7OJ       0.032800
     26 H5           3.2990    -2.8690    -8.4150 ha         1 7OJ       0.142000
     27 H6           7.9600    -1.3520    -7.7640 ha         1 7OJ       0.127000
     28 H7           6.4160    -1.4040    -5.8460 ha         1 7OJ       0.120000
     29 H8          -0.5500     0.0030    -3.2880 ha         1 7OJ       0.144000
     30 H9           3.7110     1.3940    -2.9510 hc         1 7OJ       0.058200
     31 H10          2.2780     2.0640    -3.7360 hc         1 7OJ       0.058200
     32 H11          3.6230    -1.2890    -2.8660 h1         1 7OJ       0.054700
     33 H12          2.3610    -2.1240    -3.7750 h1         1 7OJ       0.054700
     34 H13          5.0810     0.0010    -6.1710 h1         1 7OJ       0.059200
     35 H14          5.4220     0.1170    -4.4420 h1         1 7OJ       0.059200
     36 H15          1.4140     0.0010    -4.4970 hc         1 7OJ       0.066700
     37 C10         -2.1810     0.0020    -1.1000 c3         1 7OJ      -0.038400
     38 F25          2.8090     1.2520    -6.1360 f          1 7OJ      -0.214300
     39 C17          3.8270    -2.1760    -5.8560 c          1 7OJ       0.618700
     40 Br24         4.5750    -3.0020   -11.1090 br         1 7OJ      -0.083100
     41 H2          -2.5320     0.8540    -0.5300 hc         1 7OJ       0.022033
     42 H3          -2.5610     0.0640    -2.1120 hc         1 7OJ       0.022033
     43 H4          -2.5340    -0.9120    -0.6370 hc         1 7OJ       0.022033
@<TRIPOS>BOND
     1     1     2 1   
     2     1    13 2   
     3     2    18 2   
     4     2    20 1   
     5     3    12 2   
     6     3    17 1   
     7     3    20 1   
     8     4    18 1   
     9     4    19 2   
    10     4    25 1   
    11     5    14 1   
    12     5    16 1   
    13     5    24 1   
    14     5    38 1   
    15     6     7 ar  
    16     6    10 ar  
    17     6    26 1   
    18     7    11 ar  
    19     7    40 1   
    20     8     9 ar  
    21     8    11 ar  
    22     8    27 1   
    23     9    10 ar  
    24     9    28 1   
    25    10    39 1   
    26    11    23 1   
    27    12    13 1   
    28    12    29 1   
    29    13    37 1   
    30    14    17 1   
    31    14    30 1   
    32    14    31 1   
    33    15    17 1   
    34    15    21 1   
    35    15    32 1   
    36    15    33 1   
    37    16    21 1   
    38    16    34 1   
    39    16    35 1   
    40    17    36 1   
    41    19    20 1   
    42    21    39 1   
    43    22    39 2   
    44    37    41 1   
    45    37    42 1   
    46    37    43 1   
@<TRIPOS>SUBSTRUCTURE
     1 7OJ         1 TEMP              0 ****  ****    0 ROOT
