@<TRIPOS>MOLECULE
7OM
   51    55     1     0     0
SMALL
bcc


@<TRIPOS>ATOM
      1 C5           0.0000     0.0000     0.0000 c3         1 7OM       0.148800
      2 C6           1.5080     0.0000     0.0000 c3         1 7OM      -0.028400
      3 C7           2.0480     0.0000     1.4120 c3         1 7OM      -0.020400
      4 N12         -3.5930     4.4710     1.0530 nc         1 7OM      -0.333300
      5 C13         -2.3840     4.6800     1.6580 cc         1 7OM       0.581200
      6 C15         -2.6510     0.7850    -0.2700 cc         1 7OM      -0.345300
      7 C20          1.7790     4.6980     1.6760 ca         1 7OM      -0.069400
      8 C21          1.2050     5.8680     2.1180 ca         1 7OM      -0.149000
      9 C22          1.6740     7.0830     1.6690 ca         1 7OM      -0.005000
     10 C24          3.2930     5.9420     0.3470 ca         1 7OM      -0.063000
     11 C26          1.1100     8.2640     2.0970 ca         1 7OM      -0.103000
     12 C28          2.6350     9.5040     0.7570 ca         1 7OM      -0.111000
     13 C27          1.5870     9.4710     1.6440 ca         1 7OM      -0.092000
     14 C29          3.2010     8.3250     0.3240 ca         1 7OM      -0.080000
     15 C25          2.8270     4.7290     0.7880 ca         1 7OM      -0.150000
     16 C23          2.7250     7.1180     0.7760 ca         1 7OM      -0.053000
     17 C11         -3.4500     3.2650     0.5460 cd         1 7OM       0.213500
     18 C18         -1.8000     1.5260     0.4320 cd         1 7OM      -0.009700
     19 C16         -3.9620     1.3770    -0.5520 cc         1 7OM       0.430600
     20 C1           2.1380     2.3840     1.9550 c          1 7OM       0.581100
     21 C3          -0.0400     1.2950     2.1040 c3         1 7OM       0.105800
     22 C2           1.4500     1.0910     2.2710 c3         1 7OM      -0.133700
     23 C19         -4.9200     0.5470    -1.3510 c3         1 7OM      -0.057400
     24 N14         -1.5190     3.6690     1.5500 nd         1 7OM      -0.775100
     25 N17         -4.3410     2.5470    -0.1630 nd         1 7OM      -0.544000
     26 N10         -2.2120     2.7690     0.8410 na         1 7OM       0.488200
     27 N4          -0.5450     1.0990     0.7650 nh         1 7OM      -0.311000
     28 N8           1.3090     3.4610     2.1210 ns         1 7OM      -0.053100
     29 O9           3.3060     2.4510     1.5990 o          1 7OM      -0.610100
     30 H1          -0.3500     0.0770    -1.0220 h1         1 7OM       0.020700
     31 H2          -0.3500    -0.9320     0.4280 h1         1 7OM       0.020700
     32 H3           1.8620    -0.8850    -0.5150 hc         1 7OM       0.030700
     33 H4           1.8630     0.8840    -0.5150 hc         1 7OM       0.030700
     34 H5           3.1210     0.1380     1.3730 hc         1 7OM       0.033200
     35 H6           1.8300    -0.9590     1.8660 hc         1 7OM       0.033200
     36 H7          -2.1470     5.5960     2.1840 h5         1 7OM       0.020800
     37 H8          -2.5200    -0.2890    -0.3210 ha         1 7OM       0.150000
     38 H9           0.3790     5.8330     2.8180 ha         1 7OM       0.108000
     39 H10          4.1190     5.9730    -0.3540 ha         1 7OM       0.104000
     40 H11          0.2830     8.2420     2.7970 ha         1 7OM       0.102000
     41 H12          3.0140    10.4530     0.3970 ha         1 7OM       0.102000
     42 H13          1.1380    10.3950     1.9870 ha         1 7OM       0.101000
     43 H14          4.0280     8.3500    -0.3760 ha         1 7OM       0.103000
     44 H15          3.2790     3.8080     0.4410 ha         1 7OM       0.169000
     45 H16         -0.5510     0.6040     2.7630 h1         1 7OM       0.046200
     46 H17         -0.2790     2.3060     2.4110 h1         1 7OM       0.046200
     47 H18          1.6410     0.8440     3.3080 hc         1 7OM       0.052700
     48 H19         -5.8070     1.1300    -1.5690 hc         1 7OM       0.021700
     49 H20         -4.4490     0.2450    -2.2780 hc         1 7OM       0.021700
     50 H21         -5.1970    -0.3330    -0.7820 hc         1 7OM       0.021700
     51 H22          0.5630     3.4190     2.7870 hn         1 7OM       0.208500
@<TRIPOS>BOND
     1     1     2 1   
     2     1    27 1   
     3     1    30 1   
     4     1    31 1   
     5     2     3 1   
     6     2    32 1   
     7     2    33 1   
     8     3    22 1   
     9     3    34 1   
    10     3    35 1   
    11     4     5 1   
    12     4    17 2   
    13     5    24 2   
    14     5    36 1   
    15     6    18 2   
    16     6    19 1   
    17     6    37 1   
    18     7     8 ar  
    19     7    15 ar  
    20     7    28 1   
    21     8     9 ar  
    22     8    38 1   
    23     9    11 ar  
    24     9    16 ar  
    25    10    15 ar  
    26    10    16 ar  
    27    10    39 1   
    28    11    13 ar  
    29    11    40 1   
    30    12    13 ar  
    31    12    14 ar  
    32    12    41 1   
    33    13    42 1   
    34    14    16 ar  
    35    14    43 1   
    36    15    44 1   
    37    17    25 1   
    38    17    26 1   
    39    18    26 1   
    40    18    27 1   
    41    19    23 1   
    42    19    25 2   
    43    20    22 1   
    44    20    28 1   
    45    20    29 2   
    46    21    22 1   
    47    21    27 1   
    48    21    45 1   
    49    21    46 1   
    50    22    47 1   
    51    23    48 1   
    52    23    49 1   
    53    23    50 1   
    54    24    26 1   
    55    28    51 1   
@<TRIPOS>SUBSTRUCTURE
     1 7OM         1 TEMP              0 ****  ****    0 ROOT
