@<TRIPOS>MOLECULE
molecule
   51    55     1     0     0
SMALL
bcc


@<TRIPOS>ATOM
      1 C5           0.0000     0.0000     0.0000 c3         1 7OM       0.218800
      2 C6           1.5080     0.0000     0.0000 c3         1 7OM      -0.088400
      3 C7           2.0480     0.0000     1.4120 c3         1 7OM      -0.071400
      4 N12         -3.5930     4.4710     1.0530 nc         1 7OM      -0.366300
      5 C13         -2.3840     4.6800     1.6580 cc         1 7OM       0.529200
      6 C15         -2.6510     0.7850    -0.2700 cd         1 7OM      -0.396300
      7 C20          1.7790     4.6980     1.6760 ca         1 7OM       0.068600
      8 C21          1.2050     5.8680     2.1180 ca         1 7OM      -0.180000
      9 C22          1.6740     7.0830     1.6690 ca         1 7OM      -0.003000
     10 C24          3.2930     5.9420     0.3470 ca         1 7OM      -0.098000
     11 C26          1.1100     8.2640     2.0970 ca         1 7OM      -0.130000
     12 C28          2.6350     9.5040     0.7570 ca         1 7OM      -0.137000
     13 C27          1.5870     9.4710     1.6440 ca         1 7OM      -0.117000
     14 C29          3.2010     8.3250     0.3240 ca         1 7OM      -0.109000
     15 C25          2.8270     4.7290     0.7880 ca         1 7OM      -0.154000
     16 C23          2.7250     7.1180     0.7760 ca         1 7OM      -0.051000
     17 C11         -3.4500     3.2650     0.5460 cc         1 7OM       0.427500
     18 C18         -1.8000     1.5260     0.4320 cc         1 7OM       0.305300
     19 C16         -3.9620     1.3770    -0.5520 cd         1 7OM       0.494600
     20 C1           2.1380     2.3840     1.9550 c          1 7OM       0.669100
     21 C3          -0.0400     1.2950     2.1040 c3         1 7OM       0.209800
     22 C2           1.4500     1.0910     2.2710 c3         1 7OM      -0.157700
     23 C19         -4.9200     0.5470    -1.3510 c3         1 7OM      -0.153400
     24 N14         -1.5190     3.6690     1.5500 nd         1 7OM      -0.608100
     25 N17         -4.3410     2.5470    -0.1630 nc         1 7OM      -0.656000
     26 N10         -2.2120     2.7690     0.8410 na         1 7OM       0.000200
     27 N4          -0.5450     1.0990     0.7650 nh         1 7OM      -0.677000
     28 N8           1.3090     3.4610     2.1210 ns         1 7OM      -0.460100
     29 O9           3.3060     2.4510     1.5990 o          1 7OM      -0.578100
     30 H1          -0.3500     0.0770    -1.0220 h1         1 7OM       0.045700
     31 H2          -0.3500    -0.9320     0.4280 h1         1 7OM       0.045700
     32 H3           1.8620    -0.8850    -0.5150 hc         1 7OM       0.062700
     33 H4           1.8630     0.8840    -0.5150 hc         1 7OM       0.062700
     34 H5           3.1210     0.1380     1.3730 hc         1 7OM       0.061200
     35 H6           1.8300    -0.9590     1.8660 hc         1 7OM       0.061200
     36 H7          -2.1470     5.5960     2.1840 h5         1 7OM       0.075800
     37 H8          -2.5200    -0.2890    -0.3210 ha         1 7OM       0.166000
     38 H9           0.3790     5.8330     2.8180 ha         1 7OM       0.126000
     39 H10          4.1190     5.9730    -0.3540 ha         1 7OM       0.132000
     40 H11          0.2830     8.2420     2.7970 ha         1 7OM       0.126000
     41 H12          3.0140    10.4530     0.3970 ha         1 7OM       0.129000
     42 H13          1.1380    10.3950     1.9870 ha         1 7OM       0.128000
     43 H14          4.0280     8.3500    -0.3760 ha         1 7OM       0.129000
     44 H15          3.2790     3.8080     0.4410 ha         1 7OM       0.181000
     45 H16         -0.5510     0.6040     2.7630 h1         1 7OM       0.061700
     46 H17         -0.2790     2.3060     2.4110 h1         1 7OM       0.061700
     47 H18          1.6410     0.8440     3.3080 hc         1 7OM       0.082700
     48 H19         -5.8070     1.1300    -1.5690 hc         1 7OM       0.061700
     49 H20         -4.4490     0.2450    -2.2780 hc         1 7OM       0.061700
     50 H21         -5.1970    -0.3330    -0.7820 hc         1 7OM       0.061700
     51 H22          0.5630     3.4190     2.7870 hn         1 7OM       0.346500
@<TRIPOS>BOND
     1     3     2 1
     2     3    22 1
     3     2     1 1
     4    29    20 2
     5    22    20 1
     6    22    21 1
     7     1    27 1
     8    20    28 1
     9    21    27 1
    10    15    10 ar
    11    15     7 ar
    12    27    18 1
    13    28     7 1
    14    10    16 ar
    15     7     8 ar
    16    18     6 2
    17    18    26 1
    18     6    19 1
    19    16    14 ar
    20    16     9 ar
    21    14    12 ar
    22     8     9 ar
    23    26    24 1
    24    26    17 1
    25     9    11 ar
    26    24     5 2
    27    19    23 1
    28    19    25 2
    29    12    13 ar
    30    17    25 1
    31    17     4 2
    32    11    13 ar
    33     5     4 1
    34     1    30 1
    35     1    31 1
    36     2    32 1
    37     2    33 1
    38     3    34 1
    39     3    35 1
    40     5    36 1
    41     6    37 1
    42     8    38 1
    43    10    39 1
    44    11    40 1
    45    12    41 1
    46    13    42 1
    47    14    43 1
    48    15    44 1
    49    21    45 1
    50    21    46 1
    51    22    47 1
    52    23    48 1
    53    23    49 1
    54    23    50 1
    55    28    51 1
@<TRIPOS>SUBSTRUCTURE
     1 7OM         1 TEMP              0 ****  ****    0 ROOT
