@<TRIPOS>MOLECULE
7OP
   43    46     1     0     0
SMALL
bcc


@<TRIPOS>ATOM
      1 N3           0.0000     0.0000     0.0000 nc         1 7OP      -0.520000
      2 C4           1.3390     0.0000     0.0000 cc         1 7OP       0.223500
      3 C6           1.3590     0.0030    -2.3640 cc         1 7OP      -0.138600
      4 C8           3.4580     0.0010     0.4670 cd         1 7OP       0.642200
      5 C13          3.7370     1.2710    -5.0860 c3         1 7OP       0.369600
      6 C20          3.9880    -2.3120    -8.3360 ca         1 7OP      -0.040500
      7 C21          4.7090    -2.1870    -9.5040 ca         1 7OP      -0.136500
      8 C22          6.6530    -1.5400    -8.2470 ca         1 7OP      -0.136500
      9 C26          6.0400    -1.8020    -9.4630 ca         1 7OP       0.126900
     10 C23          5.9380    -1.6500    -7.0740 ca         1 7OP      -0.040500
     11 C18          4.5990    -2.0430    -7.1100 ca         1 7OP      -0.166600
     12 C1           0.0010     0.0030    -2.3540 cd         1 7OP      -0.233300
     13 C2          -0.6740     0.0010    -1.1270 cd         1 7OP       0.404600
     14 C12          2.9950     1.2530    -3.7480 c3         1 7OP      -0.092400
     15 C16          2.9990    -1.2450    -3.7470 c3         1 7OP       0.031000
     16 C14          4.6390     0.0370    -5.1820 c3         1 7OP      -0.029000
     17 C11          2.1150     0.0030    -3.6680 c3         1 7OP       0.002600
     18 N7           2.2360     0.0000     0.9800 nd         1 7OP      -0.384300
     19 N9           3.3870     0.0010    -0.8440 nc         1 7OP      -0.798100
     20 N5           2.0270     0.0020    -1.1800 na         1 7OP       0.503200
     21 N15          3.8230    -1.1640    -4.9620 n          1 7OP      -0.138800
     22 O19          3.2050    -3.1900    -5.6280 o          1 7OP      -0.629100
     23 F25          4.5180     2.4290    -5.1720 f          1 7OP      -0.215300
     24 H1           4.3770     0.0030     1.0420 h5         1 7OP       0.033800
     25 H5           2.9480    -2.6130    -8.3700 ha         1 7OP       0.118500
     26 H6           4.2350    -2.3940   -10.4570 ha         1 7OP       0.124500
     27 H7           7.6930    -1.2370    -8.2200 ha         1 7OP       0.124500
     28 H8           6.4170    -1.4440    -6.1250 ha         1 7OP       0.118500
     29 H9          -0.5540     0.0030    -3.2850 ha         1 7OP       0.141000
     30 H10          3.7140     1.2380    -2.9380 hc         1 7OP       0.060700
     31 H11          2.3730     2.1360    -3.6690 hc         1 7OP       0.060700
     32 H12          2.3740    -2.1290    -3.7920 h1         1 7OP       0.058700
     33 H13          3.6410    -1.2900    -2.8760 h1         1 7OP       0.058700
     34 H14          5.4120     0.0940    -4.4260 h1         1 7OP       0.064200
     35 H15          5.0890    -0.0060    -6.1670 h1         1 7OP       0.064200
     36 H16          1.4170     0.0020    -4.4960 hc         1 7OP       0.060700
     37 C10         -2.1810     0.0010    -1.1010 c3         1 7OP      -0.042400
     38 F24          2.8100     1.2550    -6.1350 f          1 7OP      -0.215300
     39 C17          3.8300    -2.1730    -5.8550 c          1 7OP       0.620700
     40 F27          6.7430    -1.6830   -10.6100 f          1 7OP      -0.123900
     41 H2          -2.5240    -0.0030    -0.0730 hc         1 7OP       0.023033
     42 H3          -2.5510     0.8870    -1.6020 hc         1 7OP       0.023033
     43 H4          -2.5510    -0.8820    -1.6080 hc         1 7OP       0.023033
@<TRIPOS>BOND
     1     1     2 1   
     2     1    13 2   
     3     2    18 2   
     4     2    20 1   
     5     3    12 2   
     6     3    17 1   
     7     3    20 1   
     8     4    18 1   
     9     4    19 2   
    10     4    24 1   
    11     5    14 1   
    12     5    16 1   
    13     5    23 1   
    14     5    38 1   
    15     6     7 ar  
    16     6    11 ar  
    17     6    25 1   
    18     7     9 ar  
    19     7    26 1   
    20     8     9 ar  
    21     8    10 ar  
    22     8    27 1   
    23     9    40 1   
    24    10    11 ar  
    25    10    28 1   
    26    11    39 1   
    27    12    13 1   
    28    12    29 1   
    29    13    37 1   
    30    14    17 1   
    31    14    30 1   
    32    14    31 1   
    33    15    17 1   
    34    15    21 1   
    35    15    32 1   
    36    15    33 1   
    37    16    21 1   
    38    16    34 1   
    39    16    35 1   
    40    17    36 1   
    41    19    20 1   
    42    21    39 1   
    43    22    39 2   
    44    37    41 1   
    45    37    42 1   
    46    37    43 1   
@<TRIPOS>SUBSTRUCTURE
     1 7OP         1 TEMP              0 ****  ****    0 ROOT
