@<TRIPOS>MOLECULE
7OS
   73    77     1     0     0
SMALL
bcc


@<TRIPOS>ATOM
      1 O3           0.0000     0.0000     0.0000 os         1 7OS      -0.309900
      2 C7           9.2730     0.3570    10.4100 c3         1 7OS      -0.151700
      3 C6           9.1610     0.2170     8.8900 c3         1 7OS       0.051600
      4 C5           7.1050    -0.7270     7.8240 ca         1 7OS      -0.143000
      5 C4           8.2550    -0.9400     8.5580 ca         1 7OS      -0.011300
      6 C3           8.5740    -2.2140     8.9860 ca         1 7OS      -0.126000
      7 C2           7.7420    -3.2740     8.6820 ca         1 7OS      -0.076000
      8 C1           6.5860    -3.0660     7.9490 ca         1 7OS      -0.202300
      9 O1          10.4270     1.8250    12.0260 o          1 7OS      -0.898300
     10 O2           5.1490    -1.5450     6.7830 os         1 7OS      -0.305900
     11 C8          10.1800     1.5130    10.7440 c          1 7OS       0.982600
     12 C9           7.8860     0.6090    11.0030 c3         1 7OS       0.010900
     13 C10         10.5500    -0.0340     8.2980 cx         1 7OS      -0.055700
     14 C11         11.1650     1.0750     7.4440 cx         1 7OS      -0.089900
     15 C12         10.6490    -0.2020     6.7810 cx         1 7OS      -0.089900
     16 C13          5.6970    -4.2460     7.6460 c3         1 7OS       0.055900
     17 C14          4.7530    -3.8980     6.4930 c3         1 7OS      -0.076400
     18 C15          4.1170    -2.5330     6.7850 c3         1 7OS       0.188100
     19 C16          3.0850    -2.2040     5.7060 c3         1 7OS      -0.051700
     20 C17          2.4710    -0.8290     5.9880 c3         1 7OS      -0.029400
     21 C18          1.4830    -0.4780     4.8720 c3         1 7OS       0.135300
     22 C19          2.7420    -1.7880     3.2680 c3         1 7OS       0.135300
     23 C20          3.7660    -2.1780     4.3360 c3         1 7OS      -0.029400
     24 C21          1.3010     0.0010     2.5070 c3         1 7OS       0.188800
     25 C22          2.0530     0.0000     1.2020 ca         1 7OS      -0.074300
     26 C23          1.3600     0.0000     0.0000 ca         1 7OS       0.120100
     27 C24          2.0540    -0.0000    -1.2010 ca         1 7OS      -0.176000
     28 C25          3.4350    -0.0010    -1.1990 ca         1 7OS      -0.092000
     29 C26          4.1270    -0.0010     0.0000 ca         1 7OS       0.085900
     30 C27          3.4350     0.0050     1.2000 ca         1 7OS      -0.093000
     31 C28         -0.6490     0.0000    -1.2740 c3         1 7OS       0.753700
     32 C29          0.8230     1.4210     2.8190 c3         1 7OS      -0.002100
     33 F3          -2.0350    -0.0010    -1.0910 f          1 7OS      -0.197967
     34 F1          -0.2730     1.1420    -1.9880 f          1 7OS      -0.197967
     35 F2          -0.2720    -1.1430    -1.9890 f          1 7OS      -0.197967
     36 F            5.4780    -0.0020     0.0010 f          1 7OS      -0.122900
     37 N            2.1850    -0.4670     3.5830 n3         1 7OS      -0.531600
     38 C            6.2660    -1.7920     7.5140 ca         1 7OS       0.144100
     39 O           10.6850     2.1600     9.8560 o          1 7OS      -0.898300
     40 H1           9.6830    -0.5550    10.8270 hc         1 7OS       0.023700
     41 H2           8.7500     1.1290     8.4740 hc         1 7OS       0.045700
     42 H3           6.8680     0.2690     7.4680 ha         1 7OS       0.120000
     43 H4           9.5000    -2.3890     9.5220 ha         1 7OS       0.118000
     44 H5           7.9950    -4.2720     9.0190 ha         1 7OS       0.092000
     45 H7           7.3160     1.1870    10.2860 hc         1 7OS      -0.004300
     46 H8           7.3850    -0.3340    11.1870 hc         1 7OS      -0.004300
     47 H9           7.9650     1.1620    11.9310 hc         1 7OS      -0.004300
     48 H10         11.2630    -0.6180     8.8670 hc         1 7OS       0.050700
     49 H11         12.2420     1.1690     7.5050 hc         1 7OS       0.038700
     50 H12         10.5480     1.9550     7.3060 hc         1 7OS       0.038700
     51 H13         11.4120    -0.8900     6.4360 hc         1 7OS       0.038700
     52 H14          9.7180    -0.1030     6.2370 hc         1 7OS       0.038700
     53 H15          6.3100    -5.0940     7.3640 hc         1 7OS       0.012700
     54 H16          5.1150    -4.4920     8.5250 hc         1 7OS       0.012700
     55 H17          3.9790    -4.6510     6.4160 hc         1 7OS       0.024700
     56 H18          5.3140    -3.8470     5.5670 hc         1 7OS       0.024700
     57 H19          3.6400    -2.5570     7.7580 h1         1 7OS       0.018700
     58 H20          2.3030    -2.9540     5.7050 hc         1 7OS       0.026700
     59 H21          1.9480    -0.8560     6.9360 hc         1 7OS       0.034200
     60 H22          3.2560    -0.0840     6.0220 hc         1 7OS       0.034200
     61 H23          0.6930    -1.2190     4.8450 h1         1 7OS       0.013200
     62 H24          1.0610     0.5010     5.0610 h1         1 7OS       0.013200
     63 H25          3.2280    -1.7530     2.3010 h1         1 7OS       0.013200
     64 H26          1.9440    -2.5200     3.2510 h1         1 7OS       0.013200
     65 H27          4.5700    -1.4510     4.3470 hc         1 7OS       0.034200
     66 H28          4.1640    -3.1600     4.1120 hc         1 7OS       0.034200
     67 H29          0.4450    -0.6590     2.4300 h1         1 7OS       0.018700
     68 H30          1.5130    -0.0000    -2.1400 ha         1 7OS       0.131000
     69 H31          3.9780    -0.0030    -2.1370 ha         1 7OS       0.120000
     70 H32          3.9780     0.0050     2.1370 ha         1 7OS       0.163000
     71 H33         -0.0960     1.3750     3.3900 hc         1 7OS       0.014367
     72 H34          1.5810     1.9380     3.3960 hc         1 7OS       0.014367
     73 H35          0.6480     1.9540     1.8930 hc         1 7OS       0.014367
@<TRIPOS>BOND
     1     1    26 1   
     2     1    31 1   
     3     2     3 1   
     4     2    11 1   
     5     2    12 1   
     6     2    40 1   
     7     3     5 1   
     8     3    13 1   
     9     3    41 1   
    10     4     5 ar  
    11     4    38 ar  
    12     4    42 1   
    13     5     6 ar  
    14     6     7 ar  
    15     6    43 1   
    16     7     8 ar  
    17     7    44 1   
    18     8    16 1   
    19     8    38 ar  
    20     9    11 1   
    21    10    18 1   
    22    10    38 1   
    23    11    39 1   
    24    12    45 1   
    25    12    46 1   
    26    12    47 1   
    27    13    14 1   
    28    13    15 1   
    29    13    48 1   
    30    14    15 1   
    31    14    49 1   
    32    14    50 1   
    33    15    51 1   
    34    15    52 1   
    35    16    17 1   
    36    16    53 1   
    37    16    54 1   
    38    17    18 1   
    39    17    55 1   
    40    17    56 1   
    41    18    19 1   
    42    18    57 1   
    43    19    20 1   
    44    19    23 1   
    45    19    58 1   
    46    20    21 1   
    47    20    59 1   
    48    20    60 1   
    49    21    37 1   
    50    21    61 1   
    51    21    62 1   
    52    22    23 1   
    53    22    37 1   
    54    22    63 1   
    55    22    64 1   
    56    23    65 1   
    57    23    66 1   
    58    24    25 1   
    59    24    32 1   
    60    24    37 1   
    61    24    67 1   
    62    25    26 ar  
    63    25    30 ar  
    64    26    27 ar  
    65    27    28 ar  
    66    27    68 1   
    67    28    29 ar  
    68    28    69 1   
    69    29    30 ar  
    70    29    36 1   
    71    30    70 1   
    72    31    33 1   
    73    31    34 1   
    74    31    35 1   
    75    32    71 1   
    76    32    72 1   
    77    32    73 1   
@<TRIPOS>SUBSTRUCTURE
     1 7OS         1 TEMP              0 ****  ****    0 ROOT
