@<TRIPOS>MOLECULE
molecule
   43    46     1     0     0
SMALL
bcc


@<TRIPOS>ATOM
      1 N3           0.0000     0.0000     0.0000 nc         1 7OV      -0.665000
      2 C4           1.3380     0.0000     0.0000 cc         1 7OV       0.459500
      3 C6           1.3600    -0.0010    -2.3640 cd         1 7OV       0.062400
      4 C8           3.4590    -0.0000     0.4670 cd         1 7OV       0.597200
      5 C10          2.1150    -0.0030    -3.6690 c3         1 7OV      -0.044400
      6 C13          3.7400     1.2590    -5.0880 c3         1 7OV       0.389600
      7 C20          4.7540    -2.1540    -7.0010 ca         1 7OV      -0.164600
      8 C22          6.0710    -1.7250    -6.8240 ca         1 7OV      -0.075000
      9 C24          6.5000    -2.1020    -9.1510 ca         1 7OV       0.183900
     10 C26          4.3200    -2.5560    -8.2670 ca         1 7OV      -0.017000
     11 C23          6.9370    -1.7010    -7.8970 ca         1 7OV      -0.175000
     12 C25          5.1930    -2.5270    -9.3330 ca         1 7OV      -0.003100
     13 C1           0.0020     0.0000    -2.3540 cc         1 7OV      -0.305300
     14 C2          -0.6730     0.0010    -1.1280 cc         1 7OV       0.493600
     15 C12          2.9980     1.2440    -3.7500 c3         1 7OV      -0.124400
     16 C16          2.9960    -1.2550    -3.7470 c3         1 7OV       0.105000
     17 C14          4.6400     0.0220    -5.1820 c3         1 7OV       0.053000
     18 C11         -2.1800     0.0000    -1.1010 c3         1 7OV      -0.146400
     19 N7           2.2360     0.0000     0.9800 nd         1 7OV      -0.437300
     20 N9           3.3870    -0.0020    -0.8440 nc         1 7OV      -0.638100
     21 N5           2.0270    -0.0000    -1.1810 na         1 7OV       0.012200
     22 N15          3.8200    -1.1770    -4.9600 n          1 7OV      -0.485800
     23 O21          3.0650    -3.1240    -5.7140 o          1 7OV      -0.588100
     24 F28          7.3520    -2.0760   -10.2000 f          1 7OV      -0.119900
     25 F17          2.8140     1.2440    -6.1360 f          1 7OV      -0.229800
     26 F18          4.5240     2.4150    -5.1740 f          1 7OV      -0.229800
     27 I27          4.5430    -3.1290   -11.2310 i          1 7OV      -0.126900
     28 H1           4.3780     0.0000     1.0420 h5         1 7OV       0.094800
     29 H2           1.4160    -0.0030    -4.4960 hc         1 7OV       0.092700
     30 H3           6.4130    -1.4120    -5.8440 ha         1 7OV       0.147000
     31 H4           3.2990    -2.8880    -8.4100 ha         1 7OV       0.168000
     32 H5           7.9590    -1.3700    -7.7610 ha         1 7OV       0.157000
     33 H6          -0.5530     0.0000    -3.2850 ha         1 7OV       0.168000
     34 H7           2.3780     2.1290    -3.6730 hc         1 7OV       0.086200
     35 H8           3.7170     1.2280    -2.9400 hc         1 7OV       0.086200
     36 H9           2.3690    -2.1370    -3.7910 h1         1 7OV       0.085700
     37 H10          3.6380    -1.3010    -2.8760 h1         1 7OV       0.085700
     38 H11          5.4130     0.0770    -4.4250 h1         1 7OV       0.082200
     39 H12          5.0900    -0.0240    -6.1660 h1         1 7OV       0.082200
     40 H13         -2.5230     0.0020    -0.0740 hc         1 7OV       0.065367
     41 H14         -2.5500    -0.8850    -1.6040 hc         1 7OV       0.065367
     42 H15         -2.5500     0.8840    -1.6070 hc         1 7OV       0.065367
     43 C19          3.8250    -2.1860    -5.8530 c          1 7OV       0.687700
@<TRIPOS>BOND
     1    26     6 1
     2    17     6 1
     3    17    22 1
     4    23    43 2
     5     6    25 1
     6     6    15 1
     7    43    22 1
     8    43     7 1
     9    22    16 1
    10    15     5 1
    11     8     7 ar
    12     8    11 ar
    13    16     5 1
    14     7    10 ar
    15     5     3 1
    16    11     9 ar
    17    10    12 ar
    18    13     3 2
    19    13    14 1
    20     3    21 1
    21     9    12 ar
    22     9    24 1
    23    12    27 1
    24    18    14 1
    25    14     1 2
    26    21    20 1
    27    21     2 1
    28    20     4 2
    29     1     2 1
    30     2    19 2
    31     4    19 1
    32     4    28 1
    33     5    29 1
    34     8    30 1
    35    10    31 1
    36    11    32 1
    37    13    33 1
    38    15    34 1
    39    15    35 1
    40    16    36 1
    41    16    37 1
    42    17    38 1
    43    17    39 1
    44    18    40 1
    45    18    41 1
    46    18    42 1
@<TRIPOS>SUBSTRUCTURE
     1 7OV         1 TEMP              0 ****  ****    0 ROOT
