@<TRIPOS>MOLECULE
7OV
   43    46     1     0     0
SMALL
bcc


@<TRIPOS>ATOM
      1 N3           0.0000     0.0000     0.0000 nc         1 7OV      -0.520000
      2 C4           1.3380     0.0000     0.0000 cc         1 7OV       0.224500
      3 C6           1.3600    -0.0010    -2.3640 cc         1 7OV      -0.139600
      4 C8           3.4590    -0.0000     0.4670 cd         1 7OV       0.643200
      5 C10          2.1150    -0.0030    -3.6690 c3         1 7OV       0.003600
      6 C13          3.7400     1.2590    -5.0880 c3         1 7OV       0.369600
      7 C20          4.7540    -2.1540    -7.0010 ca         1 7OV      -0.164600
      8 C22          6.0710    -1.7250    -6.8240 ca         1 7OV      -0.068000
      9 C24          6.5000    -2.1020    -9.1510 ca         1 7OV       0.151900
     10 C26          4.3200    -2.5560    -8.2670 ca         1 7OV       0.003000
     11 C23          6.9370    -1.7010    -7.8970 ca         1 7OV      -0.136000
     12 C25          5.1930    -2.5270    -9.3330 ca         1 7OV       0.129900
     13 C1           0.0020     0.0000    -2.3540 cd         1 7OV      -0.233300
     14 C2          -0.6730     0.0010    -1.1280 cd         1 7OV       0.405600
     15 C12          2.9980     1.2440    -3.7500 c3         1 7OV      -0.092400
     16 C16          2.9960    -1.2550    -3.7470 c3         1 7OV       0.031000
     17 C14          4.6400     0.0220    -5.1820 c3         1 7OV      -0.027000
     18 C11         -2.1800     0.0000    -1.1010 c3         1 7OV      -0.042400
     19 N7           2.2360     0.0000     0.9800 nd         1 7OV      -0.385300
     20 N9           3.3870    -0.0020    -0.8440 nc         1 7OV      -0.800100
     21 N5           2.0270    -0.0000    -1.1810 na         1 7OV       0.503200
     22 N15          3.8200    -1.1770    -4.9600 n          1 7OV      -0.138800
     23 O21          3.0650    -3.1240    -5.7140 o          1 7OV      -0.628100
     24 F28          7.3520    -2.0760   -10.2000 f          1 7OV      -0.116900
     25 F17          2.8140     1.2440    -6.1360 f          1 7OV      -0.214300
     26 F18          4.5240     2.4150    -5.1740 f          1 7OV      -0.214300
     27 I27          4.5430    -3.1290   -11.2310 i          1 7OV      -0.219900
     28 H1           4.3780     0.0000     1.0420 h5         1 7OV       0.033800
     29 H2           1.4160    -0.0030    -4.4960 hc         1 7OV       0.061700
     30 H3           6.4130    -1.4120    -5.8440 ha         1 7OV       0.119000
     31 H4           3.2990    -2.8880    -8.4100 ha         1 7OV       0.137000
     32 H5           7.9590    -1.3700    -7.7610 ha         1 7OV       0.128000
     33 H6          -0.5530     0.0000    -3.2850 ha         1 7OV       0.142000
     34 H7           2.3780     2.1290    -3.6730 hc         1 7OV       0.060700
     35 H8           3.7170     1.2280    -2.9400 hc         1 7OV       0.060700
     36 H9           2.3690    -2.1370    -3.7910 h1         1 7OV       0.058700
     37 H10          3.6380    -1.3010    -2.8760 h1         1 7OV       0.058700
     38 H11          5.4130     0.0770    -4.4250 h1         1 7OV       0.063200
     39 H12          5.0900    -0.0240    -6.1660 h1         1 7OV       0.063200
     40 H13         -2.5230     0.0020    -0.0740 hc         1 7OV       0.023033
     41 H14         -2.5500    -0.8850    -1.6040 hc         1 7OV       0.023033
     42 H15         -2.5500     0.8840    -1.6070 hc         1 7OV       0.023033
     43 C19          3.8250    -2.1860    -5.8530 c          1 7OV       0.620700
@<TRIPOS>BOND
     1     1     2 1   
     2     1    14 2   
     3     2    19 2   
     4     2    21 1   
     5     3     5 1   
     6     3    13 2   
     7     3    21 1   
     8     4    19 1   
     9     4    20 2   
    10     4    28 1   
    11     5    15 1   
    12     5    16 1   
    13     5    29 1   
    14     6    15 1   
    15     6    17 1   
    16     6    25 1   
    17     6    26 1   
    18     7     8 ar  
    19     7    10 ar  
    20     7    43 1   
    21     8    11 ar  
    22     8    30 1   
    23     9    11 ar  
    24     9    12 ar  
    25     9    24 1   
    26    10    12 ar  
    27    10    31 1   
    28    11    32 1   
    29    12    27 1   
    30    13    14 1   
    31    13    33 1   
    32    14    18 1   
    33    15    34 1   
    34    15    35 1   
    35    16    22 1   
    36    16    36 1   
    37    16    37 1   
    38    17    22 1   
    39    17    38 1   
    40    17    39 1   
    41    18    40 1   
    42    18    41 1   
    43    18    42 1   
    44    20    21 1   
    45    22    43 1   
    46    23    43 2   
@<TRIPOS>SUBSTRUCTURE
     1 7OV         1 TEMP              0 ****  ****    0 ROOT
