@<TRIPOS>MOLECULE
molecule
   43    46     1     0     0
SMALL
bcc


@<TRIPOS>ATOM
      1 N3           0.0000     0.0000     0.0000 nc         1 7OY      -0.667000
      2 C4           1.3380     0.0000     0.0000 cc         1 7OY       0.460500
      3 C6           1.3600     0.0000    -2.3640 cd         1 7OY       0.062400
      4 C8           3.4580     0.0000     0.4680 cd         1 7OY       0.596200
      5 C13          3.7400     1.2650    -5.0860 c3         1 7OY       0.390600
      6 C20          3.9910    -2.3210    -8.3330 ca         1 7OY      -0.037000
      7 C21          4.7150    -2.1980    -9.5010 ca         1 7OY      -0.019600
      8 C22          6.6580    -1.5500    -8.2420 ca         1 7OY      -0.159000
      9 C23          5.9410    -1.6570    -7.0690 ca         1 7OY      -0.087000
     10 C18          4.6020    -2.0500    -7.1060 ca         1 7OY      -0.143600
     11 C27          6.0470    -1.8130    -9.4580 ca         1 7OY       0.164900
     12 C1           0.0020     0.0000    -2.3550 cc         1 7OY      -0.304300
     13 C2          -0.6730     0.0000    -1.1280 cc         1 7OY       0.493600
     14 C12          2.9970     1.2490    -3.7480 c3         1 7OY      -0.121400
     15 C16          3.0010    -1.2490    -3.7460 c3         1 7OY       0.107000
     16 C14          4.6420     0.0310    -5.1800 c3         1 7OY       0.048000
     17 C11          2.1160    -0.0010    -3.6670 c3         1 7OY      -0.039400
     18 N7           2.2350     0.0000     0.9800 nd         1 7OY      -0.438300
     19 N9           3.3880    -0.0000    -0.8420 nc         1 7OY      -0.637100
     20 N5           2.0280     0.0010    -1.1790 na         1 7OY       0.012200
     21 N15          3.8250    -1.1700    -4.9590 n          1 7OY      -0.481800
     22 O19          2.7880    -2.8020    -5.8390 o          1 7OY      -0.592100
     23 F28          6.6240    -1.7240   -10.6920 f          1 7OY      -0.121900
     24 F26          4.5210     2.4230    -5.1710 f          1 7OY      -0.229800
     25 H1           4.3840     0.0000     1.0310 h5         1 7OY       0.093800
     26 H5           2.9510    -2.6210    -8.3690 ha         1 7OY       0.176000
     27 H6           7.6970    -1.2450    -8.2150 ha         1 7OY       0.157000
     28 H7           6.4210    -1.4510    -6.1200 ha         1 7OY       0.148000
     29 H8          -0.5460    -0.0360    -3.2880 ha         1 7OY       0.169000
     30 H9           2.2820     2.0620    -3.7360 hc         1 7OY       0.083700
     31 H10          3.7130     1.3920    -2.9490 hc         1 7OY       0.083700
     32 H11          2.3660    -2.1260    -3.7720 h1         1 7OY       0.082700
     33 H12          3.6270    -1.2900    -2.8630 h1         1 7OY       0.082700
     34 H13          5.0870    -0.0020    -6.1670 h1         1 7OY       0.078700
     35 H14          5.4260     0.1140    -4.4370 h1         1 7OY       0.078700
     36 H15          1.4180    -0.0030    -4.4950 hc         1 7OY       0.097700
     37 C10         -2.1800     0.0010    -1.1020 c3         1 7OY      -0.143400
     38 F25          2.8140     1.2480    -6.1350 f          1 7OY      -0.229800
     39 C17          3.8330    -2.1790    -5.8510 c          1 7OY       0.680700
     40 Cl24         3.9320    -2.5190   -11.0730 cl         1 7OY      -0.086400
     41 H2          -2.5330    -0.8910    -0.5990 hc         1 7OY       0.064033
     42 H3          -2.5320     0.8780    -0.5720 hc         1 7OY       0.064033
     43 H4          -2.5590     0.0160    -2.1170 hc         1 7OY       0.064033
@<TRIPOS>BOND
     1    24     5 1
     2    16     5 1
     3    16    21 1
     4    22    39 2
     5     5    38 1
     6     5    14 1
     7    39    21 1
     8    39    10 1
     9    21    15 1
    10    14    17 1
    11     9    10 ar
    12     9     8 ar
    13    15    17 1
    14    10     6 ar
    15    17     3 1
    16     8    11 ar
    17     6     7 ar
    18    12     3 2
    19    12    13 1
    20     3    20 1
    21    11     7 ar
    22    11    23 1
    23     7    40 1
    24    37    13 1
    25    13     1 2
    26    20    19 1
    27    20     2 1
    28    19     4 2
    29     1     2 1
    30     2    18 2
    31     4    18 1
    32     4    25 1
    33    37    41 1
    34    37    42 1
    35    37    43 1
    36     6    26 1
    37     8    27 1
    38     9    28 1
    39    12    29 1
    40    14    30 1
    41    14    31 1
    42    15    32 1
    43    15    33 1
    44    16    34 1
    45    16    35 1
    46    17    36 1
@<TRIPOS>SUBSTRUCTURE
     1 7OY         1 TEMP              0 ****  ****    0 ROOT
