@<TRIPOS>MOLECULE
7P0
   64    68     1     0     0
SMALL
bcc


@<TRIPOS>ATOM
      1 C20          0.0000     0.0000     0.0000 c          1 7P0       0.597700
      2 O22          1.2160     0.0000     0.0000 o          1 7P0      -0.645100
      3 C21         -0.7370     0.0000     1.2800 ca         1 7P0      -0.199600
      4 C23         -2.1390     0.0000     1.2800 ca         1 7P0      -0.026000
      5 C24         -2.8350     0.0010     2.4530 ca         1 7P0      -0.168000
      6 C27         -2.1560     0.0020     3.6700 ca         1 7P0      -0.040400
      7 C26         -0.7490    -0.0050     3.6840 ca         1 7P0      -0.161800
      8 C25         -0.0400    -0.0060     2.4850 ca         1 7P0       0.045000
      9 C31         -0.0510    -0.0110     4.9780 cc         1 7P0       0.229900
     10 C30         -0.8010     0.0050     6.1200 cd         1 7P0      -0.303200
     11 C29         -2.2030     0.0050     6.0410 c          1 7P0       0.607700
     12 O32         -2.8540     0.0080     7.0710 o          1 7P0      -0.689500
     13 N28         -2.8470     0.0030     4.8620 ns         1 7P0       0.039900
     14 O40          1.3010    -0.0170     5.0370 oh         1 7P0      -0.484100
     15 N19         -0.6750    -0.0060    -1.1660 ns         1 7P0      -0.179900
     16 C17          0.0570    -0.0060    -2.4350 c3         1 7P0      -0.050300
     17 C16         -0.8110     0.5880    -3.5150 c          1 7P0       0.567100
     18 O39         -1.9300     0.9740    -3.2510 o          1 7P0      -0.659100
     19 C18          0.4260    -1.4430    -2.8110 c3         1 7P0       0.022900
     20 C33          1.3910    -1.9940    -1.7940 ca         1 7P0      -0.084300
     21 C34          0.9160    -2.6550    -0.6760 ca         1 7P0      -0.089500
     22 C38          2.7530    -1.8460    -1.9810 ca         1 7P0      -0.089500
     23 C35          1.8010    -3.1620     0.2570 ca         1 7P0      -0.089500
     24 C37          3.6390    -2.3530    -1.0490 ca         1 7P0      -0.089500
     25 C36          3.1620    -3.0090     0.0710 ca         1 7P0      -0.094000
     26 C1          -2.1320     3.7830    -9.4030 ca         1 7P0      -0.089000
     27 C2          -2.8830     2.9540   -10.2140 ca         1 7P0      -0.084000
     28 C3          -2.8390     1.5830   -10.0340 ca         1 7P0      -0.023600
     29 C4          -2.0420     1.0380    -9.0430 ca         1 7P0      -0.083000
     30 C5          -1.2890     1.8620    -8.2300 ca         1 7P0      -0.036300
     31 C6          -1.3320     3.2390    -8.4080 ca         1 7P0      -0.160200
     32 N8          -0.5680     4.0770    -7.5840 na         1 7P0       0.477500
     33 C9          -0.4970     5.4250    -7.6260 cc         1 7P0       0.257400
     34 N10          0.3300     5.8000    -6.6850 nd         1 7P0      -0.378000
     35 N11          0.7860     4.7810    -6.0510 nd         1 7P0       0.039000
     36 N12          0.2850     3.6950    -6.5330 nc         1 7P0      -0.416800
     37 C13         -0.4220     1.2680    -7.1510 c3         1 7P0      -0.029100
     38 C14         -1.1860     1.2680    -5.8250 c3         1 7P0       0.061000
     39 N15         -0.3420     0.6900    -4.7750 ns         1 7P0      -0.175900
     40 H23         -2.6750     0.0010     0.3390 ha         1 7P0       0.110000
     41 H25          1.0330     0.1410     2.4900 ha         1 7P0       0.141000
     42 H24         -3.9190     0.0020     2.4390 ha         1 7P0       0.117000
     43 H28         -3.8480     0.0040     4.8490 hn         1 7P0       0.177500
     44 H30         -0.3140     0.0130     7.0870 ha         1 7P0       0.146000
     45 H40          1.6010     0.7780     5.4470 ho         1 7P0       0.416000
     46 H19         -1.6750     0.0360    -1.1650 hn         1 7P0       0.201500
     47 H17          0.9600     0.5830    -2.3320 h1         1 7P0       0.073700
     48 H181         0.8880    -1.4530    -3.7910 hc         1 7P0       0.021700
     49 H182        -0.4690    -2.0530    -2.8280 hc         1 7P0       0.021700
     50 H34         -0.1510    -2.7740    -0.5310 ha         1 7P0       0.098000
     51 H38          3.1260    -1.3330    -2.8590 ha         1 7P0       0.098000
     52 H35          1.4290    -3.6770     1.1330 ha         1 7P0       0.099500
     53 H37          4.7060    -2.2350    -1.1950 ha         1 7P0       0.099500
     54 H36          3.8560    -3.4060     0.8020 ha         1 7P0       0.099000
     55 H1          -2.1670     4.8560    -9.5440 ha         1 7P0       0.117000
     56 H2          -3.5080     3.3790   -10.9910 ha         1 7P0       0.124000
     57 H4          -2.0090    -0.0360    -8.9040 ha         1 7P0       0.128000
     58 H9          -1.0270     6.0750    -8.3120 h5         1 7P0       0.040100
     59 H131        -0.1610     0.2510    -7.4160 hc         1 7P0       0.052200
     60 H132         0.4810     1.8580    -7.0470 hc         1 7P0       0.052200
     61 H141        -1.4470     2.2850    -5.5590 h1         1 7P0       0.028700
     62 H142        -2.0880     0.6780    -5.9280 h1         1 7P0       0.028700
     63 H15          0.5960     0.4110    -4.9840 hn         1 7P0       0.181500
     64 Cl7         -3.7860     0.5450   -11.0550 cl         1 7P0       0.002600
@<TRIPOS>BOND
     1     1     2 2   
     2     1     3 1   
     3     1    15 1   
     4     3     4 ar  
     5     3     8 ar  
     6     4     5 ar  
     7     4    40 1   
     8     5     6 ar  
     9     5    42 1   
    10     6     7 ar  
    11     6    13 1   
    12     7     8 ar  
    13     7     9 1   
    14     8    41 1   
    15     9    10 2   
    16     9    14 1   
    17    10    11 1   
    18    10    44 1   
    19    11    12 2   
    20    11    13 1   
    21    13    43 1   
    22    14    45 1   
    23    15    16 1   
    24    15    46 1   
    25    16    17 1   
    26    16    19 1   
    27    16    47 1   
    28    17    18 2   
    29    17    39 1   
    30    19    20 1   
    31    19    48 1   
    32    19    49 1   
    33    20    21 ar  
    34    20    22 ar  
    35    21    23 ar  
    36    21    50 1   
    37    22    24 ar  
    38    22    51 1   
    39    23    25 ar  
    40    23    52 1   
    41    24    25 ar  
    42    24    53 1   
    43    25    54 1   
    44    26    27 ar  
    45    26    31 ar  
    46    26    55 1   
    47    27    28 ar  
    48    27    56 1   
    49    28    29 ar  
    50    28    64 1   
    51    29    30 ar  
    52    29    57 1   
    53    30    31 ar  
    54    30    37 1   
    55    31    32 1   
    56    32    33 1   
    57    32    36 1   
    58    33    34 2   
    59    33    58 1   
    60    34    35 1   
    61    35    36 2   
    62    37    38 1   
    63    37    59 1   
    64    37    60 1   
    65    38    39 1   
    66    38    61 1   
    67    38    62 1   
    68    39    63 1   
@<TRIPOS>SUBSTRUCTURE
     1 7P0         1 TEMP              0 ****  ****    0 ROOT
