@<TRIPOS>MOLECULE
molecule
   64    68     1     0     0
SMALL
bcc


@<TRIPOS>ATOM
      1 C20          0.0000     0.0000     0.0000 c          1 7P0       0.677700
      2 O22          1.2160     0.0000     0.0000 o          1 7P0      -0.599100
      3 C21         -0.7370     0.0000     1.2800 ca         1 7P0      -0.189600
      4 C23         -2.1390     0.0000     1.2800 ca         1 7P0      -0.050000
      5 C24         -2.8350     0.0010     2.4530 ca         1 7P0      -0.195000
      6 C27         -2.1560     0.0020     3.6700 ca         1 7P0       0.118600
      7 C26         -0.7490    -0.0050     3.6840 ca         1 7P0      -0.158800
      8 C25         -0.0400    -0.0060     2.4850 ca         1 7P0       0.009000
      9 C31         -0.0510    -0.0110     4.9780 cc         1 7P0       0.207900
     10 C30         -0.8010     0.0050     6.1200 cd         1 7P0      -0.305200
     11 C29         -2.2030     0.0050     6.0410 c          1 7P0       0.706700
     12 O32         -2.8540     0.0080     7.0710 o          1 7P0      -0.640500
     13 N28         -2.8470     0.0030     4.8620 ns         1 7P0      -0.430100
     14 O40          1.3010    -0.0170     5.0370 oh         1 7P0      -0.504100
     15 N19         -0.6750    -0.0060    -1.1660 ns         1 7P0      -0.568900
     16 C17          0.0570    -0.0060    -2.4350 c3         1 7P0       0.049700
     17 C16         -0.8110     0.5880    -3.5150 c          1 7P0       0.653100
     18 O39         -1.9300     0.9740    -3.2510 o          1 7P0      -0.615100
     19 C18          0.4260    -1.4430    -2.8110 c3         1 7P0      -0.044100
     20 C33          1.3910    -1.9940    -1.7940 ca         1 7P0      -0.075300
     21 C34          0.9160    -2.6550    -0.6760 ca         1 7P0      -0.115000
     22 C38          2.7530    -1.8460    -1.9810 ca         1 7P0      -0.115000
     23 C35          1.8010    -3.1620     0.2570 ca         1 7P0      -0.118000
     24 C37          3.6390    -2.3530    -1.0490 ca         1 7P0      -0.118000
     25 C36          3.1620    -3.0090     0.0710 ca         1 7P0      -0.121000
     26 C1          -2.1320     3.7830    -9.4030 ca         1 7P0      -0.131000
     27 C2          -2.8830     2.9540   -10.2140 ca         1 7P0      -0.103000
     28 C3          -2.8390     1.5830   -10.0340 ca         1 7P0       0.032400
     29 C4          -2.0420     1.0380    -9.0430 ca         1 7P0      -0.101000
     30 C5          -1.2890     1.8620    -8.2300 ca         1 7P0      -0.057300
     31 C6          -1.3320     3.2390    -8.4080 ca         1 7P0       0.011800
     32 N8          -0.5680     4.0770    -7.5840 na         1 7P0       0.005500
     33 C9          -0.4970     5.4250    -7.6260 cc         1 7P0       0.413400
     34 N10          0.3300     5.8000    -6.6850 nd         1 7P0      -0.403000
     35 N11          0.7860     4.7810    -6.0510 nd         1 7P0       0.004000
     36 N12          0.2850     3.6950    -6.5330 nc         1 7P0      -0.225800
     37 C13         -0.4220     1.2680    -7.1510 c3         1 7P0      -0.067100
     38 C14         -1.1860     1.2680    -5.8250 c3         1 7P0       0.125000
     39 N15         -0.3420     0.6900    -4.7750 ns         1 7P0      -0.577900
     40 H23         -2.6750     0.0010     0.3390 ha         1 7P0       0.139000
     41 H25          1.0330     0.1410     2.4900 ha         1 7P0       0.176000
     42 H24         -3.9190     0.0020     2.4390 ha         1 7P0       0.142000
     43 H28         -3.8480     0.0040     4.8490 hn         1 7P0       0.341500
     44 H30         -0.3140     0.0130     7.0870 ha         1 7P0       0.172000
     45 H40          1.6010     0.7780     5.4470 ho         1 7P0       0.437000
     46 H19         -1.6750     0.0360    -1.1650 hn         1 7P0       0.334500
     47 H17          0.9600     0.5830    -2.3320 h1         1 7P0       0.100700
     48 H181         0.8880    -1.4530    -3.7910 hc         1 7P0       0.053200
     49 H182        -0.4690    -2.0530    -2.8280 hc         1 7P0       0.053200
     50 H34         -0.1510    -2.7740    -0.5310 ha         1 7P0       0.122000
     51 H38          3.1260    -1.3330    -2.8590 ha         1 7P0       0.122000
     52 H35          1.4290    -3.6770     1.1330 ha         1 7P0       0.127500
     53 H37          4.7060    -2.2350    -1.1950 ha         1 7P0       0.127500
     54 H36          3.8560    -3.4060     0.8020 ha         1 7P0       0.127000
     55 H1          -2.1670     4.8560    -9.5440 ha         1 7P0       0.143000
     56 H2          -3.5080     3.3790   -10.9910 ha         1 7P0       0.157000
     57 H4          -2.0090    -0.0360    -8.9040 ha         1 7P0       0.159000
     58 H9          -1.0270     6.0750    -8.3120 h5         1 7P0       0.084100
     59 H131        -0.1610     0.2510    -7.4160 hc         1 7P0       0.075200
     60 H132         0.4810     1.8580    -7.0470 hc         1 7P0       0.075200
     61 H141        -1.4470     2.2850    -5.5590 h1         1 7P0       0.058200
     62 H142        -2.0880     0.6780    -5.9280 h1         1 7P0       0.058200
     63 H15          0.5960     0.4110    -4.9840 hn         1 7P0       0.319500
     64 Cl7         -3.7860     0.5450   -11.0550 cl         1 7P0      -0.087400
@<TRIPOS>BOND
     1     1     3 1   
     2     1     2 2   
     3     1    15 1   
     4     3     4 ar  
     5     3     8 ar  
     6     4     5 ar  
     7     5     6 ar  
     8     8     7 ar  
     9     7     6 ar  
    10     7     9 1   
    11     6    13 1   
    12    13    11 1   
    13    11    10 1   
    14    11    12 2   
    15    10     9 2   
    16    15    16 1   
    17    16    17 1   
    18    16    19 1   
    19    17    18 2   
    20    17    39 1   
    21    19    20 1   
    22    20    21 ar  
    23    20    22 ar  
    24    21    23 ar  
    25    22    24 ar  
    26    23    25 ar  
    27    24    25 ar  
    28    26    27 ar  
    29    26    31 ar  
    30    27    28 ar  
    31    28    29 ar  
    32    28    64 1   
    33    29    30 ar  
    34    30    31 ar  
    35    30    37 1   
    36    31    32 1   
    37    32    33 1   
    38    32    36 1   
    39    33    34 2   
    40    34    35 1   
    41    35    36 2   
    42    37    38 1   
    43    38    39 1   
    44     9    14 1   
    45    15    46 1   
    46     4    40 1   
    47     8    41 1   
    48     5    42 1   
    49    13    43 1   
    50    10    44 1   
    51    16    47 1   
    52    19    48 1   
    53    19    49 1   
    54    39    63 1   
    55    21    50 1   
    56    22    51 1   
    57    23    52 1   
    58    24    53 1   
    59    25    54 1   
    60    26    55 1   
    61    27    56 1   
    62    29    57 1   
    63    37    59 1   
    64    37    60 1   
    65    33    58 1   
    66    38    61 1   
    67    38    62 1   
    68    14    45 1   
@<TRIPOS>SUBSTRUCTURE
     1 7P0         1 TEMP              0 ****  ****    0 ROOT
