@<TRIPOS>MOLECULE
molecule
   41    42     1     0     0
SMALL
bcc


@<TRIPOS>ATOM
      1 C01          0.0000     0.0000     0.0000 ca         1 7P1      -0.187600
      2 C02         -0.7410    -0.0000    -1.2740 c          1 7P1       0.894200
      3 O03         -1.9510    -0.1110    -1.2720 o          1 7P1      -0.851800
      4 O04         -0.0770     0.1230    -2.4400 o          1 7P1      -0.851800
      5 C05          1.3970     0.0000     0.0000 ca         1 7P1      -0.071000
      6 C06          2.0850     0.0000     1.1950 ca         1 7P1      -0.257000
      7 C07          1.3970    -0.0010     2.3980 ca         1 7P1      -0.119000
      8 C08          0.0170    -0.0020     2.4150 ca         1 7P1      -0.231000
      9 C09         -0.6930     0.0050     1.2210 ca         1 7P1       0.229600
     10 N10         -2.0820     0.0040     1.2360 nu         1 7P1      -0.619000
     11 C11         -2.7670    -0.5210     2.3270 ca         1 7P1       0.150600
     12 C12         -2.1680    -1.4860     3.1270 ca         1 7P1      -0.194000
     13 C13         -2.8460    -2.0070     4.2090 ca         1 7P1      -0.212000
     14 C14         -4.1320    -1.5720     4.5090 ca         1 7P1       0.082100
     15 C15         -4.7430    -0.6130     3.7230 ca         1 7P1      -0.107000
     16 C16         -4.0620    -0.0730     2.6280 ca         1 7P1      -0.138600
     17 C17         -4.7040     0.9550     1.7900 c          1 7P1       0.895200
     18 O18         -4.0740     1.4970     0.9040 o          1 7P1      -0.851800
     19 O19         -5.9900     1.2940     2.0070 o          1 7P1      -0.851800
     20 O20         -4.7920    -2.0930     5.5780 os         1 7P1      -0.342900
     21 C21         -4.1030    -3.0810     6.3470 c3         1 7P1       0.129400
     22 C22         -4.9970    -3.5450     7.4990 c3         1 7P1      -0.040400
     23 C23         -4.2590    -4.6030     8.3210 c3         1 7P1      -0.248600
     24 P24         -5.3230    -5.1560     9.6940 p5         1 7P1       1.072700
     25 O25         -5.5760    -3.9300    10.7050 o          1 7P1      -0.929833
     26 O26         -6.6190    -5.6260     9.1550 o          1 7P1      -0.929833
     27 O27         -4.6020    -6.3610    10.4820 o          1 7P1      -0.929833
     28 H2           1.9390     0.0010    -0.9380 ha         1 7P1       0.126000
     29 H3           3.1680     0.0000     1.1930 ha         1 7P1       0.074000
     30 H4           1.9460    -0.0040     3.3310 ha         1 7P1       0.084000
     31 H5          -0.5120    -0.0000     3.3600 ha         1 7P1       0.141000
     32 H6          -2.5910     0.3810     0.4610 hn         1 7P1       0.532800
     33 H7          -1.1830    -1.8610     2.8750 ha         1 7P1       0.122000
     34 H8          -2.3750    -2.7610     4.8280 ha         1 7P1       0.119000
     35 H9          -5.7190    -0.2290     3.9970 ha         1 7P1       0.156000
     36 H11         -3.8600    -3.9260     5.7150 h1         1 7P1       0.010200
     37 H12         -3.1900    -2.6550     6.7470 h1         1 7P1       0.010200
     38 H13         -5.2390    -2.7000     8.1310 hc         1 7P1       0.055200
     39 H14         -5.9100    -3.9700     7.0980 hc         1 7P1       0.055200
     40 H15         -3.3460    -4.1790     8.7200 hc         1 7P1       0.014200
     41 H16         -4.0180    -5.4490     7.6880 hc         1 7P1       0.014200
@<TRIPOS>BOND
     1     7     6 ar  
     2     7     8 ar  
     3     6     5 ar  
     4     8     9 ar  
     5     5     1 ar  
     6     9     1 ar  
     7     9    10 1   
     8     1     2 1   
     9    12    13 ar  
    10    12    11 ar  
    11    13    14 ar  
    12    10    11 1   
    13    11    16 ar  
    14     2     3 1   
    15     2     4 1   
    16    14    20 1   
    17    14    15 ar  
    18    20    21 1   
    19    21    22 1   
    20    16    15 ar  
    21    16    17 1   
    22    22    23 1   
    23    17    18 1   
    24    17    19 1   
    25    26    24 1   
    26    23    24 1   
    27    27    24 1   
    28    24    25 1   
    29     5    28 1   
    30     6    29 1   
    31     7    30 1   
    32     8    31 1   
    33    10    32 1   
    34    12    33 1   
    35    13    34 1   
    36    15    35 1   
    37    21    36 1   
    38    21    37 1   
    39    22    38 1   
    40    22    39 1   
    41    23    40 1   
    42    23    41 1   
@<TRIPOS>SUBSTRUCTURE
     1 7P1         1 TEMP              0 ****  ****    0 ROOT
