@<TRIPOS>MOLECULE
7P1
   41    42     1     0     0
SMALL
bcc


@<TRIPOS>ATOM
      1 C01          0.0000     0.0000     0.0000 ca         1 7P1      -0.201600
      2 C02         -0.7410    -0.0000    -1.2740 c          1 7P1       0.992200
      3 O03         -1.9510    -0.1110    -1.2720 o          1 7P1      -0.899300
      4 O04         -0.0770     0.1230    -2.4400 o          1 7P1      -0.899300
      5 C05          1.3970     0.0000     0.0000 ca         1 7P1      -0.038000
      6 C06          2.0850     0.0000     1.1950 ca         1 7P1      -0.259000
      7 C07          1.3970    -0.0010     2.3980 ca         1 7P1      -0.088000
      8 C08          0.0170    -0.0020     2.4150 ca         1 7P1      -0.237000
      9 C09         -0.6930     0.0050     1.2210 ca         1 7P1       0.091600
     10 N10         -2.0820     0.0040     1.2360 nu         1 7P1      -0.202000
     11 C11         -2.7670    -0.5210     2.3270 ca         1 7P1       0.006600
     12 C12         -2.1680    -1.4860     3.1270 ca         1 7P1      -0.183000
     13 C13         -2.8460    -2.0070     4.2090 ca         1 7P1      -0.204000
     14 C14         -4.1320    -1.5720     4.5090 ca         1 7P1       0.090100
     15 C15         -4.7430    -0.6130     3.7230 ca         1 7P1      -0.089000
     16 C16         -4.0620    -0.0730     2.6280 ca         1 7P1      -0.139600
     17 C17         -4.7040     0.9550     1.7900 c          1 7P1       0.990200
     18 O18         -4.0740     1.4970     0.9040 o          1 7P1      -0.898800
     19 O19         -5.9900     1.2940     2.0070 o          1 7P1      -0.898800
     20 O20         -4.7920    -2.0930     5.5780 os         1 7P1      -0.312900
     21 C21         -4.1030    -3.0810     6.3470 c3         1 7P1       0.173400
     22 C22         -4.9970    -3.5450     7.4990 c3         1 7P1       0.009600
     23 C23         -4.2590    -4.6030     8.3210 c3         1 7P1      -0.045600
     24 P24         -5.3230    -5.1560     9.6940 p5         1 7P1       0.441700
     25 O25         -5.5760    -3.9300    10.7050 o          1 7P1      -0.764833
     26 O26         -6.6190    -5.6260     9.1550 o          1 7P1      -0.764833
     27 O27         -4.6020    -6.3610    10.4820 o          1 7P1      -0.764833
     28 H2           1.9390     0.0010    -0.9380 ha         1 7P1       0.103000
     29 H3           3.1680     0.0000     1.1930 ha         1 7P1       0.063000
     30 H4           1.9460    -0.0040     3.3310 ha         1 7P1       0.063000
     31 H5          -0.5120    -0.0000     3.3600 ha         1 7P1       0.131000
     32 H6          -2.5910     0.3810     0.4610 hn         1 7P1       0.404800
     33 H7          -1.1830    -1.8610     2.8750 ha         1 7P1       0.112000
     34 H8          -2.3750    -2.7610     4.8280 ha         1 7P1       0.109000
     35 H9          -5.7190    -0.2290     3.9970 ha         1 7P1       0.130000
     36 H11         -3.8600    -3.9260     5.7150 h1         1 7P1      -0.019800
     37 H12         -3.1900    -2.6550     6.7470 h1         1 7P1      -0.019800
     38 H13         -5.2390    -2.7000     8.1310 hc         1 7P1       0.023700
     39 H14         -5.9100    -3.9700     7.0980 hc         1 7P1       0.023700
     40 H15         -3.3460    -4.1790     8.7200 hc         1 7P1      -0.014300
     41 H16         -4.0180    -5.4490     7.6880 hc         1 7P1      -0.014300
@<TRIPOS>BOND
     1     1     2 1   
     2     1     5 ar  
     3     1     9 ar  
     4     2     3 1   
     5     2     4 1   
     6     5     6 ar  
     7     5    28 1   
     8     6     7 ar  
     9     6    29 1   
    10     7     8 ar  
    11     7    30 1   
    12     8     9 ar  
    13     8    31 1   
    14     9    10 1   
    15    10    11 1   
    16    10    32 1   
    17    11    12 ar  
    18    11    16 ar  
    19    12    13 ar  
    20    12    33 1   
    21    13    14 ar  
    22    13    34 1   
    23    14    15 ar  
    24    14    20 1   
    25    15    16 ar  
    26    15    35 1   
    27    16    17 1   
    28    17    18 1   
    29    17    19 1   
    30    20    21 1   
    31    21    22 1   
    32    21    36 1   
    33    21    37 1   
    34    22    23 1   
    35    22    38 1   
    36    22    39 1   
    37    23    24 1   
    38    23    40 1   
    39    23    41 1   
    40    24    25 1   
    41    24    26 1   
    42    24    27 1   
@<TRIPOS>SUBSTRUCTURE
     1 7P1         1 TEMP              0 ****  ****    0 ROOT
