@<TRIPOS>MOLECULE
molecule
   44    45     1     0     0
SMALL
bcc


@<TRIPOS>ATOM
      1 C01          0.0000     0.0000     0.0000 ca         1 7P2      -0.185600
      2 C02         -0.7420     0.0010    -1.2730 c          1 7P2       0.895200
      3 O03         -0.0780     0.1230    -2.4400 o          1 7P2      -0.850800
      4 O04         -1.9520    -0.1100    -1.2710 o          1 7P2      -0.850800
      5 C05          1.3970     0.0000     0.0000 ca         1 7P2      -0.070000
      6 C06          2.0840     0.0000     1.1940 ca         1 7P2      -0.252000
      7 C07          1.3980     0.0010     2.3970 ca         1 7P2      -0.117000
      8 C08          0.0180     0.0010     2.4150 ca         1 7P2      -0.231000
      9 C09         -0.6930     0.0060     1.2220 ca         1 7P2       0.226600
     10 N10         -2.0830     0.0070     1.2360 nu         1 7P2      -0.620000
     11 C11         -2.7660    -0.5160     2.3290 ca         1 7P2       0.158600
     12 C12         -2.1680    -1.4810     3.1300 ca         1 7P2      -0.191000
     13 C13         -2.8460    -2.0000     4.2130 ca         1 7P2      -0.206000
     14 C14         -4.1320    -1.5630     4.5120 ca         1 7P2       0.070100
     15 C15         -4.7420    -0.6060     3.7270 ca         1 7P2      -0.107000
     16 C16         -4.0610    -0.0670     2.6300 ca         1 7P2      -0.139600
     17 C17         -4.7030     0.9600     1.7910 c          1 7P2       0.895200
     18 O18         -4.0720     1.5000     0.9040 o          1 7P2      -0.850300
     19 O19         -5.9880     1.3010     2.0080 o          1 7P2      -0.850300
     20 C20         -4.1030    -3.0710     6.3520 c3         1 7P2       0.132400
     21 C21         -4.9960    -3.5340     7.5050 c3         1 7P2      -0.083400
     22 C22         -4.2590    -4.5910     8.3290 c3         1 7P2      -0.041400
     23 C23         -5.1520    -5.0540     9.4810 c3         1 7P2      -0.249600
     24 P24         -4.2740    -6.3140    10.4620 p5         1 7P2       1.069700
     25 O25         -2.9710    -5.7730    10.9070 o          1 7P2      -0.929167
     26 O26         -5.1600    -6.7060    11.7500 o          1 7P2      -0.929167
     27 O27         -4.0310    -7.6250     9.5600 o          1 7P2      -0.929167
     28 O28         -4.7910    -2.0830     5.5820 os         1 7P2      -0.353900
     29 H2           1.9390    -0.0480    -0.9370 ha         1 7P2       0.128000
     30 H3           3.1680    -0.0010     1.1920 ha         1 7P2       0.076000
     31 H4           1.9480     0.0030     3.3300 ha         1 7P2       0.087000
     32 H5          -0.5100     0.0560     3.3590 ha         1 7P2       0.138000
     33 H6          -2.5910     0.3530     0.4460 hn         1 7P2       0.533800
     34 H7          -1.1670    -1.8260     2.9030 ha         1 7P2       0.128000
     35 H8          -2.3740    -2.7520     4.8340 ha         1 7P2       0.121000
     36 H9          -5.7430    -0.2660     3.9640 ha         1 7P2       0.152000
     37 H11         -3.8620    -3.9180     5.7200 h1         1 7P2       0.024200
     38 H12         -3.1900    -2.6470     6.7510 h1         1 7P2       0.024200
     39 H13         -5.9090    -3.9580     7.1060 hc         1 7P2       0.028700
     40 H14         -5.2370    -2.6870     8.1370 hc         1 7P2       0.028700
     41 H15         -4.0180    -5.4370     7.6970 hc         1 7P2       0.045200
     42 H16         -3.3460    -4.1670     8.7280 hc         1 7P2       0.045200
     43 H17         -5.3940    -4.2080    10.1130 hc         1 7P2       0.014200
     44 H18         -6.0660    -5.4790     9.0820 hc         1 7P2       0.014200
@<TRIPOS>BOND
     1     7     6 ar
     2     7     8 ar
     3     6     5 ar
     4     8     9 ar
     5    13    12 ar
     6    13    14 ar
     7     5     1 ar
     8    12    11 ar
     9     9     1 ar
    10     9    10 1
    11    28    14 1
    12    28    20 1
    13    14    15 ar
    14     1     2 1
    15    11    10 1
    16    11    16 ar
    17    21    20 1
    18    21    22 1
    19    15    16 ar
    20    16    17 1
    21    22    23 1
    22     2     4 1
    23     2     3 1
    24    17    18 1
    25    17    19 1
    26    23    24 1
    27    25    24 1
    28    27    24 1
    29    24    26 1
    30     5    29 1
    31     6    30 1
    32     7    31 1
    33     8    32 1
    34    10    33 1
    35    12    34 1
    36    13    35 1
    37    15    36 1
    38    20    37 1
    39    20    38 1
    40    21    39 1
    41    21    40 1
    42    22    41 1
    43    22    42 1
    44    23    43 1
    45    23    44 1
@<TRIPOS>SUBSTRUCTURE
     1 7P2         1 TEMP              0 ****  ****    0 ROOT
