@<TRIPOS>MOLECULE
7P3
   47    48     1     0     0
SMALL
bcc


@<TRIPOS>ATOM
      1 C01          0.0000     0.0000     0.0000 ca         1 7P3      -0.191600
      2 C02         -0.7410     0.0010    -1.2720 c          1 7P3       0.989200
      3 O03         -0.0780     0.1230    -2.4390 o          1 7P3      -0.895300
      4 O04         -1.9520    -0.1090    -1.2710 o          1 7P3      -0.895300
      5 C05          1.3980     0.0000     0.0000 ca         1 7P3      -0.038000
      6 C06          2.0850     0.0000     1.1940 ca         1 7P3      -0.246000
      7 C07          1.3980     0.0010     2.3980 ca         1 7P3      -0.090000
      8 C08          0.0180     0.0020     2.4150 ca         1 7P3      -0.234000
      9 C09         -0.6930     0.0070     1.2220 ca         1 7P3       0.087600
     10 N10         -2.0820     0.0090     1.2360 nu         1 7P3      -0.206000
     11 C11         -2.7660    -0.5140     2.3300 ca         1 7P3       0.025600
     12 C12         -2.1690    -1.4780     3.1310 ca         1 7P3      -0.186000
     13 C13         -2.8470    -1.9950     4.2150 ca         1 7P3      -0.196000
     14 C14         -4.1320    -1.5580     4.5140 ca         1 7P3       0.066100
     15 C15         -4.7420    -0.6000     3.7270 ca         1 7P3      -0.078000
     16 C16         -4.0610    -0.0640     2.6300 ca         1 7P3      -0.141600
     17 C17         -4.7020     0.9640     1.7910 c          1 7P3       0.988200
     18 O18         -4.0710     1.5020     0.9020 o          1 7P3      -0.892300
     19 O19         -5.9880     1.3050     2.0070 o          1 7P3      -0.892300
     20 O20         -4.7920    -2.0760     5.5840 os         1 7P3      -0.316900
     21 C21         -4.1040    -3.0630     6.3550 c3         1 7P3       0.192400
     22 C22         -4.9990    -3.5240     7.5080 c3         1 7P3      -0.038400
     23 C23         -4.2620    -4.5820     8.3330 c3         1 7P3      -0.044400
     24 C24         -5.1560    -5.0430     9.4860 c3         1 7P3       0.014600
     25 C25         -4.4190    -6.1000    10.3110 c3         1 7P3      -0.051600
     26 P26         -5.4840    -6.6500    11.6840 p5         1 7P3       0.439700
     27 O29         -6.7800    -7.1190    11.1470 o          1 7P3      -0.763833
     28 O28         -4.7640    -7.8530    12.4740 o          1 7P3      -0.763833
     29 O27         -5.7350    -5.4210    12.6930 o          1 7P3      -0.763833
     30 H2           1.9400    -0.0010    -0.9380 ha         1 7P3       0.106000
     31 H3           3.1680    -0.0000     1.1920 ha         1 7P3       0.066000
     32 H4           1.9470    -0.0000     3.3310 ha         1 7P3       0.065000
     33 H5          -0.5110     0.0060     3.3610 ha         1 7P3       0.127000
     34 H6          -2.5900     0.4010     0.4690 hn         1 7P3       0.407800
     35 H7          -1.1820    -1.8500     2.8840 ha         1 7P3       0.116000
     36 H8          -2.3750    -2.7470     4.8360 ha         1 7P3       0.102000
     37 H9          -5.7190    -0.2180     3.9970 ha         1 7P3       0.130000
     38 H11         -3.8630    -3.9110     5.7240 h1         1 7P3      -0.009800
     39 H12         -3.1910    -2.6380     6.7540 h1         1 7P3      -0.009800
     40 H13         -5.2400    -2.6770     8.1390 hc         1 7P3       0.015700
     41 H14         -5.9120    -3.9490     7.1090 hc         1 7P3       0.015700
     42 H15         -3.3480    -4.1570     8.7320 hc         1 7P3      -0.006300
     43 H16         -4.0210    -5.4290     7.7020 hc         1 7P3      -0.006300
     44 H17         -5.3970    -4.1960    10.1170 hc         1 7P3       0.016700
     45 H18         -6.0690    -5.4670     9.0880 hc         1 7P3       0.016700
     46 H19         -4.1780    -6.9460     9.6790 hc         1 7P3      -0.013800
     47 H20         -3.5060    -5.6750    10.7090 hc         1 7P3      -0.013800
@<TRIPOS>BOND
     1     1     2 1   
     2     1     5 ar  
     3     1     9 ar  
     4     2     3 1   
     5     2     4 1   
     6     5     6 ar  
     7     5    30 1   
     8     6     7 ar  
     9     6    31 1   
    10     7     8 ar  
    11     7    32 1   
    12     8     9 ar  
    13     8    33 1   
    14     9    10 1   
    15    10    11 1   
    16    10    34 1   
    17    11    12 ar  
    18    11    16 ar  
    19    12    13 ar  
    20    12    35 1   
    21    13    14 ar  
    22    13    36 1   
    23    14    15 ar  
    24    14    20 1   
    25    15    16 ar  
    26    15    37 1   
    27    16    17 1   
    28    17    18 1   
    29    17    19 1   
    30    20    21 1   
    31    21    22 1   
    32    21    38 1   
    33    21    39 1   
    34    22    23 1   
    35    22    40 1   
    36    22    41 1   
    37    23    24 1   
    38    23    42 1   
    39    23    43 1   
    40    24    25 1   
    41    24    44 1   
    42    24    45 1   
    43    25    26 1   
    44    25    46 1   
    45    25    47 1   
    46    26    27 1   
    47    26    28 1   
    48    26    29 1   
@<TRIPOS>SUBSTRUCTURE
     1 7P3         1 TEMP              0 ****  ****    0 ROOT
