@<TRIPOS>MOLECULE
7P9
   63    62     1     0     0
SMALL
bcc


@<TRIPOS>ATOM
      1 O1         -0.8330   -1.9340    1.4690 o         1 7P9     -0.914167
      2 O2          1.0200   -0.5090    2.5970 o         1 7P9     -0.914167
      3 P1          0.6080   -1.7300    1.8320 p5        1 7P9      1.316900
      4 O3          1.3470   -3.0050    2.1810 o         1 7P9     -0.914167
      5 O4          1.2970   -1.4350    0.2610 os        1 7P9     -0.562200
      6 C1          2.5530   -0.9070    0.2530 c3        1 7P9      0.230400
      7 C2          3.6110   -1.8450   -0.3940 c3        1 7P9      0.075100
      8 C3          3.6220   -3.2290    0.2560 c3        1 7P9      0.059400
      9 O5          3.5990   -4.2950   -0.6960 os        1 7P9     -0.444900
     10 C4          2.3940   -4.8200   -1.0930 c         1 7P9      0.664100
     11 O6          2.5710   -5.8450   -1.7760 o         1 7P9     -0.617000
     12 C5          1.1090   -4.1490   -0.7730 c3        1 7P9     -0.223400
     13 C6         -0.1000   -4.9470   -1.2010 c3        1 7P9     -0.039400
     14 C7         -1.3480   -4.0950   -1.0890 c3        1 7P9     -0.114400
     15 C8         -2.6020   -4.9320   -1.2150 c3        1 7P9     -0.061400
     16 C9         -3.8410   -4.0710   -1.0840 c3        1 7P9     -0.089400
     17 C10        -5.1030   -4.8920   -1.1290 c3        1 7P9     -0.084100
     18 O7          3.2650   -1.9750   -1.7910 os        1 7P9     -0.391900
     19 C12         4.2350   -1.8800   -2.7240 c         1 7P9      0.639100
     20 O8          5.3900   -1.5400   -2.4330 o         1 7P9     -0.602000
     21 C13         3.7200   -2.2160   -4.0970 c3        1 7P9     -0.140400
     22 C14         4.5250   -1.5260   -5.1750 c3        1 7P9     -0.074400
     23 C11         5.5960   -0.7960  -12.5590 c3        1 7P9     -0.090100
     24 C15         4.0890   -1.9790   -6.5510 c3        1 7P9     -0.079400
     25 C16         4.8810   -1.2790   -7.6350 c3        1 7P9     -0.077400
     26 C17         4.4500   -1.7350   -9.0130 c3        1 7P9     -0.079400
     27 C18         5.2410   -1.0350  -10.0970 c3        1 7P9     -0.078400
     28 C19         4.8120   -1.4900  -11.4760 c3        1 7P9     -0.081400
     29 H11C        2.5720    0.0450   -0.3560 h1        1 7P9      0.006700
     30 H12C        2.9100   -0.6860    1.3010 h1        1 7P9      0.006700
     31 HA          4.6230   -1.3650   -0.3040 h1        1 7P9      0.037700
     32 H31C        4.6050   -3.3890    0.7770 h1        1 7P9      0.112700
     33 H32C        2.7640   -3.2970    1.0120 h1        1 7P9      0.112700
     34 H51C        1.1270   -3.1370   -1.2750 hc        1 7P9      0.156200
     35 H52C        1.0340   -3.9010    0.3440 hc        1 7P9      0.156200
     36 H61C        0.0260   -5.3140   -2.2540 hc        1 7P9      0.013700
     37 H62C       -0.1960   -5.8540   -0.5490 hc        1 7P9      0.013700
     38 H71C       -1.3370   -3.3130   -1.8920 hc        1 7P9      0.091200
     39 H72C       -1.3480   -3.5370   -0.1020 hc        1 7P9      0.091200
     40 H81C       -2.6100   -5.7180   -0.4140 hc        1 7P9      0.012700
     41 H82C       -2.6160   -5.4670   -2.2010 hc        1 7P9      0.012700
     42 H91C       -3.7860   -3.5010   -0.1170 hc        1 7P9      0.054200
     43 H92C       -3.8550   -3.3120   -1.9100 hc        1 7P9      0.054200
     44 H101       -5.1220   -5.6300   -0.2900 hc        1 7P9      0.013033
     45 H102       -6.0020   -4.2350   -1.0390 hc        1 7P9      0.013033
     46 H103       -5.1760   -5.4570   -2.0900 hc        1 7P9      0.013033
     47 H131        3.7830   -3.3320   -4.2080 hc        1 7P9      0.079200
     48 H132        2.6370   -1.9300   -4.1640 hc        1 7P9      0.079200
     49 H141        5.6150   -1.7460   -5.0230 hc        1 7P9      0.048700
     50 H142        4.3990   -0.4150   -5.0820 hc        1 7P9      0.048700
     51 H151        4.2250   -3.0890   -6.6420 hc        1 7P9      0.039700
     52 H152        2.9950   -1.7680   -6.6880 hc        1 7P9      0.039700
     53 H161        4.7420   -0.1700   -7.5450 hc        1 7P9      0.037700
     54 H162        5.9740   -1.4870   -7.4940 hc        1 7P9      0.037700
     55 H171        3.3560   -1.5280   -9.1520 hc        1 7P9      0.038700
     56 H172        4.5900   -2.8450   -9.1020 hc        1 7P9      0.038700
     57 H111        5.4500    0.3100  -12.5040 hc        1 7P9      0.027033
     58 H112        6.6870   -1.0100  -12.4540 hc        1 7P9      0.027033
     59 H113        5.2640   -1.1460  -13.5660 hc        1 7P9      0.027033
     60 H191        3.7170   -1.2840  -11.6120 hc        1 7P9      0.037200
     61 H192        4.9510   -2.6000  -11.5620 hc        1 7P9      0.037200
     62 H181        5.1010    0.0740  -10.0080 hc        1 7P9      0.037200
     63 H182        6.3350   -1.2420   -9.9570 hc        1 7P9      0.037200
@<TRIPOS>BOND
     1    1    3 1   
     2    2    3 1   
     3    3    4 1   
     4    3    5 1   
     5    5    6 1   
     6    6    7 1   
     7    6   29 1   
     8    6   30 1   
     9    7    8 1   
    10    7   18 1   
    11    7   31 1   
    12    8    9 1   
    13    8   32 1   
    14    8   33 1   
    15    9   10 1   
    16   10   11 2   
    17   10   12 1   
    18   12   13 1   
    19   12   34 1   
    20   12   35 1   
    21   13   14 1   
    22   13   36 1   
    23   13   37 1   
    24   14   15 1   
    25   14   38 1   
    26   14   39 1   
    27   15   16 1   
    28   15   40 1   
    29   15   41 1   
    30   16   17 1   
    31   16   42 1   
    32   16   43 1   
    33   17   44 1   
    34   17   45 1   
    35   17   46 1   
    36   18   19 1   
    37   19   20 2   
    38   19   21 1   
    39   21   22 1   
    40   21   47 1   
    41   21   48 1   
    42   22   24 1   
    43   22   49 1   
    44   22   50 1   
    45   23   28 1   
    46   23   57 1   
    47   23   58 1   
    48   23   59 1   
    49   24   25 1   
    50   24   51 1   
    51   24   52 1   
    52   25   26 1   
    53   25   53 1   
    54   25   54 1   
    55   26   27 1   
    56   26   55 1   
    57   26   56 1   
    58   27   28 1   
    59   27   62 1   
    60   27   63 1   
    61   28   60 1   
    62   28   61 1   
@<TRIPOS>SUBSTRUCTURE
     1 7P9         1 TEMP              0 ****  ****    0 ROOT
