@<TRIPOS>MOLECULE
molecule
   63    62     1     0     0
SMALL
bcc


@<TRIPOS>ATOM
      1 O1           0.0000     0.0000     0.0000 o          1 7P9      -0.910500
      2 O2           2.1460     1.3140    -0.7590 o          1 7P9      -0.910500
      3 P1           1.6100     0.0000     0.0000 p5         1 7P9       1.179900
      4 O3           2.1030     0.0000     1.3950 o          1 7P9      -0.910500
      5 O4           2.1460    -1.3150    -0.7580 os         1 7P9      -0.560200
      6 C1           3.5310    -1.6580    -0.8370 c3         1 7P9       0.205400
      7 C2           3.6900    -2.9600    -1.6240 c3         1 7P9       0.132100
      8 C3           2.8260    -4.0510    -0.9870 c3         1 7P9       0.165400
      9 O5           1.4520    -3.5900    -0.9010 os         1 7P9      -0.312900
     10 C4           0.5580    -4.4350    -0.3630 c          1 7P9       0.642100
     11 O6           0.9140    -5.5230     0.0250 o          1 7P9      -0.634000
     12 C5          -0.8870    -4.0270    -0.2400 c3         1 7P9      -0.128400
     13 C6          -1.6850    -5.1630     0.4030 c3         1 7P9      -0.070400
     14 C7          -3.1530    -4.7480     0.5270 c3         1 7P9      -0.084400
     15 C8          -3.9510    -5.8840     1.1700 c3         1 7P9      -0.080400
     16 C9          -5.4180    -5.4690     1.2940 c3         1 7P9      -0.085400
     17 C10         -6.2170    -6.6040     1.9370 c3         1 7P9      -0.092100
     18 O7           3.2690    -2.7490    -2.9970 os         1 7P9      -0.386900
     19 C12          4.2080    -2.3470    -3.8680 c          1 7P9       0.640100
     20 O8           5.3450    -2.1760    -3.4940 o          1 7P9      -0.587000
     21 C13          3.8460    -2.1080    -5.3110 c3         1 7P9      -0.129400
     22 C14          5.0880    -1.6590    -6.0820 c3         1 7P9      -0.070400
     23 C11          7.7130     0.4140   -12.7900 c3         1 7P9      -0.092100
     24 C15          4.7200    -1.4170    -7.5470 c3         1 7P9      -0.084400
     25 C16          5.9630    -0.9690    -8.3180 c3         1 7P9      -0.080400
     26 C17          5.5950    -0.7260    -9.7830 c3         1 7P9      -0.082400
     27 C18          6.8370    -0.2770   -10.5530 c3         1 7P9      -0.081400
     28 C19          6.4690    -0.0350   -12.0190 c3         1 7P9      -0.084400
     29 H11C         3.9280    -1.7890     0.1630 h1         1 7P9       0.027700
     30 H12C         4.0720    -0.8640    -1.3380 h1         1 7P9       0.027700
     31 HA           4.7290    -3.2670    -1.6070 h1         1 7P9       0.044700
     32 H31C         3.1960    -4.2710     0.0070 h1         1 7P9       0.032200
     33 H32C         2.8690    -4.9460    -1.5950 h1         1 7P9       0.032200
     34 H51C        -1.2870    -3.8160    -1.2240 hc         1 7P9       0.100700
     35 H52C        -0.9600    -3.1400     0.3770 hc         1 7P9       0.100700
     36 H61C        -1.2850    -5.3730     1.3870 hc         1 7P9       0.041200
     37 H62C        -1.6110    -6.0500    -0.2140 hc         1 7P9       0.041200
     38 H71C        -3.2270    -3.8610     1.1440 hc         1 7P9       0.048700
     39 H72C        -3.5530    -4.5380    -0.4580 hc         1 7P9       0.048700
     40 H81C        -3.8780    -6.7710     0.5520 hc         1 7P9       0.034700
     41 H82C        -3.5510    -6.0950     2.1540 hc         1 7P9       0.034700
     42 H91C        -5.8190    -5.2580     0.3100 hc         1 7P9       0.041700
     43 H92C        -5.4920    -4.5820     1.9110 hc         1 7P9       0.041700
     44 H101        -7.2560    -6.3100     2.0250 hc         1 7P9       0.023367
     45 H102        -6.1450    -7.4920     1.3190 hc         1 7P9       0.023367
     46 H103        -5.8170    -6.8150     2.9210 hc         1 7P9       0.023367
     47 H131         3.0860    -1.3370    -5.3690 hc         1 7P9       0.069200
     48 H132         3.4630    -3.0250    -5.7440 hc         1 7P9       0.069200
     49 H141         5.8470    -2.4300    -6.0240 hc         1 7P9       0.055200
     50 H142         5.4710    -0.7430    -5.6500 hc         1 7P9       0.055200
     51 H151         3.9610    -0.6460    -7.6050 hc         1 7P9       0.038200
     52 H152         4.3370    -2.3330    -7.9790 hc         1 7P9       0.038200
     53 H161         6.3460    -0.0520    -7.8850 hc         1 7P9       0.041700
     54 H162         6.7220    -1.7400    -8.2590 hc         1 7P9       0.041700
     55 H171         4.8350     0.0450    -9.8420 hc         1 7P9       0.038700
     56 H172         5.2130    -1.6420   -10.2160 hc         1 7P9       0.038700
     57 H111         7.4520     0.5850   -13.8270 hc         1 7P9       0.028033
     58 H112         8.0940     1.3320   -12.3570 hc         1 7P9       0.028033
     59 H113         8.4720    -0.3560   -12.7310 hc         1 7P9       0.028033
     60 H191         6.0880    -0.9520   -12.4510 hc         1 7P9       0.038200
     61 H192         5.7100     0.7350   -12.0780 hc         1 7P9       0.038200
     62 H181         7.5970    -1.0470   -10.4940 hc         1 7P9       0.039700
     63 H182         7.2180     0.6410   -10.1210 hc         1 7P9       0.039700
@<TRIPOS>BOND
     1     1     3 1   
     2     2     3 1   
     3     3     4 1   
     4     3     5 1   
     5     5     6 1   
     6     6     7 1   
     7     8     9 1   
     8     8     7 1   
     9     9    10 1   
    10    10    11 2   
    11    10    12 1   
    12    12    13 1   
    13    13    14 1   
    14    14    15 1   
    15    15    16 1   
    16    16    17 1   
    17    18    19 1   
    18    18     7 1   
    19    19    20 2   
    20    19    21 1   
    21    21    22 1   
    22    22    24 1   
    23    24    25 1   
    24    25    26 1   
    25    23    28 1   
    26    26    27 1   
    27    27    28 1   
    28     6    29 1   
    29     6    30 1   
    30     7    31 1   
    31     8    32 1   
    32     8    33 1   
    33    12    34 1   
    34    12    35 1   
    35    13    36 1   
    36    13    37 1   
    37    14    38 1   
    38    14    39 1   
    39    15    40 1   
    40    15    41 1   
    41    16    42 1   
    42    16    43 1   
    43    17    44 1   
    44    17    45 1   
    45    17    46 1   
    46    21    47 1   
    47    21    48 1   
    48    22    49 1   
    49    22    50 1   
    50    24    51 1   
    51    24    52 1   
    52    25    53 1   
    53    25    54 1   
    54    26    55 1   
    55    26    56 1   
    56    23    57 1   
    57    23    58 1   
    58    23    59 1   
    59    28    60 1   
    60    28    61 1   
    61    27    62 1   
    62    27    63 1   
@<TRIPOS>SUBSTRUCTURE
     1 7P9         1 TEMP              0 ****  ****    0 ROOT
