@<TRIPOS>MOLECULE
molecule
   17    16     1     0     0
SMALL
bcc


@<TRIPOS>ATOM
      1 O1           0.0000     0.0000     0.0000 o          1 7PA      -0.961500
      2 O2           2.1990     1.2140    -0.7830 o          1 7PA      -0.961500
      3 C1           2.4320    -3.9860    -0.8190 c3         1 7PA      -0.253600
      4 C2           1.8230    -2.7700    -0.1360 c3         1 7PA      -0.012400
      5 P1           2.0410    -5.5500    -0.0050 p5         1 7PA       1.120700
      6 C3           2.2130    -1.4520    -0.7930 c3         1 7PA      -0.253600
      7 P2           1.4890     0.0000     0.0000 p5         1 7PA       1.120700
      8 O3           2.5150    -5.6270     1.4040 o          1 7PA      -0.961500
      9 O4           2.6600    -6.6350    -1.0220 o          1 7PA      -0.961500
     10 O5           2.1990     0.0000     1.4450 o          1 7PA      -0.961500
     11 O6           0.4510    -5.6710    -0.2280 o          1 7PA      -0.961500
     12 H11          3.5080    -3.8680    -0.8400 hc         1 7PA      -0.004550
     13 H12          2.0680    -4.0280    -1.8380 hc         1 7PA      -0.004550
     14 H21          2.1480    -2.7520     0.8970 hc         1 7PA       0.031200
     15 H22          0.7440    -2.8630    -0.1590 hc         1 7PA       0.031200
     16 H31          3.2920    -1.3590    -0.7640 hc         1 7PA      -0.004550
     17 H32          1.8950    -1.4750    -1.8280 hc         1 7PA      -0.004550
@<TRIPOS>BOND
     1     1     7 1   
     2     2     7 1   
     3     3     4 1   
     4     3     5 1   
     5     3    12 1   
     6     3    13 1   
     7     4     6 1   
     8     4    14 1   
     9     4    15 1   
    10     5     8 1   
    11     5     9 1   
    12     5    11 1   
    13     6     7 1   
    14     6    16 1   
    15     6    17 1   
    16     7    10 1   
@<TRIPOS>SUBSTRUCTURE
     1 7PA         1 TEMP              0 ****  ****    0 ROOT
