@<TRIPOS>MOLECULE
7PA
   17    16     1     0     0
SMALL
bcc


@<TRIPOS>ATOM
      1 O1          0.1590    0.4700   -0.2310 o         1 7PA     -0.981333
      2 O2          2.4060    1.0480   -1.2130 o         1 7PA     -0.981333
      3 C1          2.2660   -4.0070   -0.6090 c3        1 7PA     -0.264600
      4 C2          1.6760   -2.7850    0.0930 c3        1 7PA      0.045600
      5 P1          2.1040   -5.8060   -0.2500 p5        1 7PA      1.219700
      6 C3          2.0810   -1.4630   -0.5580 c3        1 7PA     -0.264600
      7 P2          1.6620    0.2780   -0.1260 p5        1 7PA      1.219700
      8 O3          2.6780   -6.0930    1.1260 o         1 7PA     -0.981333
      9 O4          2.9590   -6.4150   -1.3570 o         1 7PA     -0.981333
     10 O5          2.2050    0.5920    1.2570 o         1 7PA     -0.981333
     11 O6          0.6450   -6.2100   -0.3800 o         1 7PA     -0.981333
     12 H11         3.3770   -3.8710   -0.6130 hc        1 7PA     -0.011300
     13 H12         1.9390   -3.9540   -1.6780 hc        1 7PA     -0.011300
     14 H21         0.5550   -2.8660    0.0950 hc        1 7PA     -0.010300
     15 H22         2.0040   -2.7830    1.1680 hc        1 7PA     -0.010300
     16 H31         3.2000   -1.4360   -0.5640 hc        1 7PA     -0.011300
     17 H32         1.7620   -1.5190   -1.6290 hc        1 7PA     -0.011300
@<TRIPOS>BOND
     1    1    7 1   
     2    2    7 1   
     3    3    4 1   
     4    3    5 1   
     5    3   12 1   
     6    3   13 1   
     7    4    6 1   
     8    4   14 1   
     9    4   15 1   
    10    5    8 1   
    11    5    9 1   
    12    5   11 1   
    13    6    7 1   
    14    6   16 1   
    15    6   17 1   
    16    7   10 1   
@<TRIPOS>SUBSTRUCTURE
     1 7PA         1 TEMP              0 ****  ****    0 ROOT
