@<TRIPOS>MOLECULE
molecule
   39    41     1     0     0
SMALL
bcc


@<TRIPOS>ATOM
      1 Cl2          0.0000     0.0000     0.0000 cl         1 7PC      -0.039400
      2 C15          1.7360     0.0000     0.0000 ca         1 7PC      -0.003600
      3 C16          2.4270     0.0000     1.1960 ca         1 7PC      -0.065000
      4 C14          2.4300    -0.0060    -1.2020 ca         1 7PC       0.212100
      5 C19          3.8180    -0.0060    -1.1980 ca         1 7PC      -0.188000
      6 C22          4.5040    -0.0000     0.0000 ca         1 7PC      -0.062000
      7 C17          3.8110     0.0010     1.1970 ca         1 7PC      -0.241300
      8 C29          4.5620     0.0020     2.5030 c3         1 7PC       0.168100
      9 N30          4.8060    -1.3840     2.9280 nz         1 7PC      -0.811600
     10 O13          1.7540    -0.0110    -2.3800 os         1 7PC      -0.200200
     11 C2           2.4720    -0.1270    -3.5290 ca         1 7PC       0.040100
     12 C1           2.8150    -1.3880    -4.0090 ca         1 7PC       0.105100
     13 O22          2.4330    -2.5030    -3.3300 oh         1 7PC      -0.519100
     14 C6           3.5450    -1.5080    -5.1780 ca         1 7PC      -0.135000
     15 C5           3.9360    -0.3630    -5.8720 cp         1 7PC      -0.096500
     16 C4           3.5890     0.8970    -5.3860 ca         1 7PC      -0.125000
     17 C3           2.8560     1.0100    -4.2230 ca         1 7PC      -0.113000
     18 C7           4.7190    -0.4870    -7.1250 cp         1 7PC       0.457800
     19 N23          5.0410    -1.6890    -7.5840 nb         1 7PC      -0.689000
     20 C24          5.7360    -1.8410    -8.6930 ca         1 7PC       0.427200
     21 C25          6.1560    -0.7450    -9.4240 ca         1 7PC      -0.237300
     22 C26          5.8410     0.5310    -8.9800 ca         1 7PC      -0.087000
     23 C27          5.1060     0.6620    -7.8140 ca         1 7PC      -0.232300
     24 H16          1.8860     0.0010     2.1350 ha         1 7PC       0.149000
     25 H19          4.3630    -0.0080    -2.1350 ha         1 7PC       0.176000
     26 H22          5.5880     0.0000     0.0030 ha         1 7PC       0.137000
     27 H291         5.5100     0.5120     2.3740 hx         1 7PC       0.110200
     28 H292         3.9760     0.5140     3.2560 hx         1 7PC       0.110200
     29 H301         5.4140    -1.8330     2.2720 hn         1 7PC       0.453467
     30 H302         3.9370    -1.8780     2.9700 hn         1 7PC       0.453467
     31 HO22         1.8530    -3.0160    -3.8680 ho         1 7PC       0.440000
     32 H6           3.8750    -2.4830    -5.5130 ha         1 7PC       0.178000
     33 H4           3.8910     1.7870    -5.9240 ha         1 7PC       0.151000
     34 H3           2.5680     1.9890    -3.8590 ha         1 7PC       0.155000
     35 H24          5.9810    -2.8390    -9.0370 h4         1 7PC       0.032100
     36 H25          6.7280    -0.8820   -10.3330 ha         1 7PC       0.149000
     37 H26          6.1570     1.4050    -9.5360 ha         1 7PC       0.148000
     38 H27          4.8420     1.6430    -7.4380 ha         1 7PC       0.141000
     39 H303         5.2340    -1.3840     3.8330 hn         1 7PC       0.453467
@<TRIPOS>BOND
     1     1     2 1
     2     2     4 ar
     3     2     3 ar
     4     3     7 ar
     5     3    24 1
     6     4     5 ar
     7     4    10 1
     8     5     6 ar
     9     5    25 1
    10     6     7 ar
    11     6    26 1
    12     7     8 1
    13     8     9 1
    14     8    27 1
    15     8    28 1
    16     9    29 1
    17     9    30 1
    18    10    11 1
    19    11    12 ar
    20    11    17 ar
    21    12    14 ar
    22    12    13 1
    23    13    31 1
    24    14    15 ar
    25    14    32 1
    26    15    18 1
    27    15    16 ar
    28    16    17 ar
    29    16    33 1
    30    17    34 1
    31    18    23 ar
    32    18    19 ar
    33    19    20 ar
    34    20    21 ar
    35    20    35 1
    36    21    22 ar
    37    21    36 1
    38    22    23 ar
    39    22    37 1
    40    23    38 1
    41    39     9 1
@<TRIPOS>SUBSTRUCTURE
     1 7PC         1 TEMP              0 ****  ****    0 ROOT
