@<TRIPOS>MOLECULE
7PE
   51    50     1     0     0
SMALL
bcc


@<TRIPOS>ATOM
      1 C21        -0.2790    2.3700    0.0780 c3        1 7PE     -0.097100
      2 C20        -0.2290    0.8910    0.3800 c3        1 7PE      0.131400
      3 O19         1.1490    0.5200    0.4040 os        1 7PE     -0.428600
      4 C18         1.3300   -0.8700    0.6640 c3        1 7PE      0.126400
      5 C17         2.8320   -1.0900    0.8150 c3        1 7PE      0.127400
      6 O16         3.0570   -1.4150    2.1850 os        1 7PE     -0.429600
      7 C15         4.4450   -1.4800    2.5030 c3        1 7PE      0.127400
      8 C14         4.5380   -2.0030    3.9330 c3        1 7PE      0.127400
      9 O13         5.0120   -3.3450    3.8440 os        1 7PE     -0.429600
     10 C12         4.9950   -4.0090    5.1050 c3        1 7PE      0.127400
     11 C11         5.6850   -5.3530    4.8970 c3        1 7PE      0.127400
     12 O10         6.9620   -5.2540    5.5240 os        1 7PE     -0.429600
     13 C9          7.7830   -6.3890    5.2600 c3        1 7PE      0.127400
     14 C8          9.0340   -6.2290    6.1170 c3        1 7PE      0.127400
     15 O7          8.9220   -7.1730    7.1790 os        1 7PE     -0.428600
     16 C6          9.9500   -7.0140    8.1540 c3        1 7PE      0.127400
     17 C5          9.8100   -8.1810    9.1250 c3        1 7PE      0.128400
     18 O4         10.8920   -9.0700    8.8510 os        1 7PE     -0.438600
     19 C3         10.7840  -10.2950    9.5730 c3        1 7PE      0.087400
     20 C2         12.0300  -11.1040    9.2240 c3        1 7PE      0.131400
     21 O1         13.2030  -10.4930    9.7190 oh        1 7PE     -0.600800
     22 H211        0.1960    2.5830   -0.9090 hc        1 7PE      0.045033
     23 H212        0.2690    2.9460    0.8620 hc        1 7PE      0.045033
     24 H213       -1.3430    2.7060    0.0530 hc        1 7PE      0.045033
     25 H201       -0.6940    0.6660    1.3770 h1        1 7PE      0.024700
     26 H202       -0.7620    0.2980   -0.4100 h1        1 7PE      0.024700
     27 H181        0.7880   -1.1650    1.6020 h1        1 7PE      0.041700
     28 H182        0.9310   -1.4620   -0.2010 h1        1 7PE      0.041700
     29 H171        3.4000   -0.1620    0.5370 h1        1 7PE      0.043200
     30 H172        3.1710   -1.9460    0.1740 h1        1 7PE      0.043200
     31 H151        4.8880   -0.4510    2.4340 h1        1 7PE      0.043700
     32 H152        4.9750   -2.1680    1.7920 h1        1 7PE      0.043700
     33 H141        5.2700   -1.3930    4.5260 h1        1 7PE      0.043700
     34 H142        3.5340   -1.9780    4.4330 h1        1 7PE      0.043700
     35 H121        5.5370   -3.3970    5.8740 h1        1 7PE      0.043200
     36 H122        3.9310   -4.1620    5.4260 h1        1 7PE      0.043200
     37 H111        5.8050   -5.5740    3.8040 h1        1 7PE      0.043700
     38 H112        5.0980   -6.1740    5.3870 h1        1 7PE      0.043700
     39 H91         8.0540   -6.4030    4.1710 h1        1 7PE      0.043700
     40 H92         7.2370   -7.3340    5.5250 h1        1 7PE      0.043700
     41 H81         9.1040   -5.1870    6.5280 h1        1 7PE      0.044200
     42 H82         9.9530   -6.4600    5.5150 h1        1 7PE      0.044200
     43 H61         9.8020   -6.0400    8.6910 h1        1 7PE      0.043200
     44 H62        10.9580   -7.0240    7.6610 h1        1 7PE      0.043200
     45 H51         8.8290   -8.7070    8.9780 h1        1 7PE      0.045200
     46 H52         9.8910   -7.8220   10.1850 h1        1 7PE      0.045200
     47 H31         9.8570  -10.8420    9.2590 h1        1 7PE      0.039200
     48 H32        10.7430  -10.0820   10.6740 h1        1 7PE      0.039200
     49 H21        12.1020  -11.2340    8.1110 h1        1 7PE      0.053200
     50 H22        11.9860  -12.1050    9.7270 h1        1 7PE      0.053200
     51 HO1        13.2310   -9.6000    9.3520 ho        1 7PE      0.412000
@<TRIPOS>BOND
     1    1    2 1   
     2    1   22 1   
     3    1   23 1   
     4    1   24 1   
     5    2    3 1   
     6    2   25 1   
     7    2   26 1   
     8    3    4 1   
     9    4    5 1   
    10    4   27 1   
    11    4   28 1   
    12    5    6 1   
    13    5   29 1   
    14    5   30 1   
    15    6    7 1   
    16    7    8 1   
    17    7   31 1   
    18    7   32 1   
    19    8    9 1   
    20    8   33 1   
    21    8   34 1   
    22    9   10 1   
    23   10   11 1   
    24   10   35 1   
    25   10   36 1   
    26   11   12 1   
    27   11   37 1   
    28   11   38 1   
    29   12   13 1   
    30   13   14 1   
    31   13   39 1   
    32   13   40 1   
    33   14   15 1   
    34   14   41 1   
    35   14   42 1   
    36   15   16 1   
    37   16   17 1   
    38   16   43 1   
    39   16   44 1   
    40   17   18 1   
    41   17   45 1   
    42   17   46 1   
    43   18   19 1   
    44   19   20 1   
    45   19   47 1   
    46   19   48 1   
    47   20   21 1   
    48   20   49 1   
    49   20   50 1   
    50   21   51 1   
@<TRIPOS>SUBSTRUCTURE
     1 7PE         1 TEMP              0 ****  ****    0 ROOT
