@<TRIPOS>MOLECULE
molecule
   51    50     1     0     0
SMALL
bcc


@<TRIPOS>ATOM
      1 C21          0.0000     0.0000     0.0000 c3         1 7PE      -0.092100
      2 C20          1.5300     0.0000     0.0000 c3         1 7PE       0.122400
      3 O19          2.0070     0.0000     1.3480 os         1 7PE      -0.399600
      4 C18          3.4340     0.0010     1.2810 c3         1 7PE       0.127400
      5 C17          4.0100     0.0010     2.6980 c3         1 7PE       0.126400
      6 O16          3.6630    -1.2210     3.3540 os         1 7PE      -0.387600
      7 C15          4.2270    -1.1610     4.6650 c3         1 7PE       0.126400
      8 C14          3.8900    -2.4460     5.4250 c3         1 7PE       0.126400
      9 O13          4.5280    -3.5560     4.7890 os         1 7PE      -0.388600
     10 C12          4.1770    -4.7190     5.5410 c3         1 7PE       0.126400
     11 C11          4.8310    -5.9500     4.9100 c3         1 7PE       0.126400
     12 O10          6.2520    -5.8430     5.0210 os         1 7PE      -0.389600
     13 C9           6.8020    -7.0160     4.4170 c3         1 7PE       0.126400
     14 C8           8.3290    -6.9640     4.5010 c3         1 7PE       0.126400
     15 O7           8.7320    -7.0190     5.8710 os         1 7PE      -0.388600
     16 C6          10.1610    -6.9680     5.8830 c3         1 7PE       0.126400
     17 C5          10.6610    -7.0220     7.3280 c3         1 7PE       0.125400
     18 O4          10.3230    -8.2870     7.9010 os         1 7PE      -0.386600
     19 C3          10.8140    -8.2770     9.2430 c3         1 7PE       0.128400
     20 C2          10.4830    -9.6110     9.9170 c3         1 7PE       0.141400
     21 O1          11.1930   -10.6640     9.2630 oh         1 7PE      -0.600800
     22 H211        -0.3610     0.8640     0.5440 hc         1 7PE       0.043367
     23 H212        -0.3610     0.0390    -1.0210 hc         1 7PE       0.043367
     24 H213        -0.3610    -0.9030     0.4760 hc         1 7PE       0.043367
     25 H201         1.8910     0.8840    -0.5110 h1         1 7PE       0.022700
     26 H202         1.8910    -0.8840    -0.5110 h1         1 7PE       0.022700
     27 H181         3.7710     0.8860     0.7540 h1         1 7PE       0.034200
     28 H182         3.7720    -0.8840     0.7540 h1         1 7PE       0.034200
     29 H171         5.0880     0.0910     2.6500 h1         1 7PE       0.033200
     30 H172         3.6020     0.8370     3.2530 h1         1 7PE       0.033200
     31 H151         3.8180    -0.3100     5.1960 h1         1 7PE       0.033200
     32 H152         5.3030    -1.0570     4.5910 h1         1 7PE       0.033200
     33 H141         2.8170    -2.5960     5.4220 h1         1 7PE       0.034700
     34 H142         4.2410    -2.3640     6.4460 h1         1 7PE       0.034700
     35 H121         4.5250    -4.6080     6.5610 h1         1 7PE       0.034200
     36 H122         3.1010    -4.8400     5.5380 h1         1 7PE       0.034200
     37 H111         4.4950    -6.8420     5.4260 h1         1 7PE       0.034700
     38 H112         4.5540    -6.0110     3.8650 h1         1 7PE       0.034700
     39 H91          6.4410    -7.8940     4.9390 h1         1 7PE       0.034700
     40 H92          6.4990    -7.0630     3.3780 h1         1 7PE       0.034700
     41 H81          8.7490    -7.8080     3.9680 h1         1 7PE       0.034200
     42 H82          8.6850    -6.0430     4.0560 h1         1 7PE       0.034200
     43 H61         10.5570    -7.8120     5.3320 h1         1 7PE       0.034200
     44 H62         10.4930    -6.0460     5.4210 h1         1 7PE       0.034200
     45 H51         10.1950    -6.2300     7.9020 h1         1 7PE       0.034200
     46 H52         11.7370    -6.8950     7.3430 h1         1 7PE       0.034200
     47 H31         11.8880    -8.1340     9.2330 h1         1 7PE       0.033200
     48 H32         10.3470    -7.4690     9.7920 h1         1 7PE       0.033200
     49 H21         10.7760    -9.5710    10.9590 h1         1 7PE       0.028200
     50 H22          9.4180    -9.7960     9.8490 h1         1 7PE       0.028200
     51 HO1         11.0610   -11.4710     9.7330 ho         1 7PE       0.399000
@<TRIPOS>BOND
     1     1     2 1
     2     1    22 1
     3     1    23 1
     4     1    24 1
     5     2     3 1
     6     2    25 1
     7     2    26 1
     8     3     4 1
     9     4     5 1
    10     4    27 1
    11     4    28 1
    12     5     6 1
    13     5    29 1
    14     5    30 1
    15     6     7 1
    16     7     8 1
    17     7    31 1
    18     7    32 1
    19     8     9 1
    20     8    33 1
    21     8    34 1
    22     9    10 1
    23    10    11 1
    24    10    35 1
    25    10    36 1
    26    11    12 1
    27    11    37 1
    28    11    38 1
    29    12    13 1
    30    13    14 1
    31    13    39 1
    32    13    40 1
    33    14    15 1
    34    14    41 1
    35    14    42 1
    36    15    16 1
    37    16    17 1
    38    16    43 1
    39    16    44 1
    40    17    18 1
    41    17    45 1
    42    17    46 1
    43    18    19 1
    44    19    20 1
    45    19    47 1
    46    19    48 1
    47    20    21 1
    48    20    49 1
    49    20    50 1
    50    21    51 1
@<TRIPOS>SUBSTRUCTURE
     1 7PE         1 TEMP              0 ****  ****    0 ROOT
