@<TRIPOS>MOLECULE
molecule
   37    40     1     0     0
SMALL
bcc


@<TRIPOS>ATOM
      1 C1           0.0000     0.0000     0.0000 c3         1 7PF      -0.060400
      2 C2           1.5370     0.0000     0.0000 c3         1 7PF      -0.071000
      3 C15          2.0580     1.2540    -0.7060 c3         1 7PF      -0.078600
      4 C14          2.0580    -1.2530    -0.7050 c3         1 7PF      -0.078600
      5 C7          -1.6200    -0.3360     1.8660 c2         1 7PF      -0.209200
      6 C12          0.7660    -1.8990     4.0220 c3         1 7PF       0.150400
      7 C10          0.0300     2.2400     3.4740 cx         1 7PF       0.063400
      8 C3           1.9900     0.0000     1.4700 c3         1 7PF      -0.060400
      9 C13         -2.1280    -2.3770     3.1920 c          1 7PF       0.893800
     10 C11          1.0030     0.2870     4.8740 c          1 7PF       0.760600
     11 C6          -1.2280    -1.3870     2.5820 ce         1 7PF      -0.112400
     12 C8          -0.4270     0.4720     1.4020 c3         1 7PF      -0.052500
     13 C5           0.2760    -1.4150     2.6740 c3         1 7PF      -0.052500
     14 C9           0.8290     0.9320     3.5200 cx         1 7PF      -0.034200
     15 C4           0.7320    -0.0000     2.3290 c3         1 7PF      -0.046000
     16 O4          -1.6190    -3.4060     3.8980 o          1 7PF      -0.830800
     17 O2           1.6120     0.8420     5.7580 o          1 7PF      -0.585500
     18 O5          -3.3310    -2.2650     3.0590 o          1 7PF      -0.830800
     19 O3           0.4550    -0.9330     5.0630 os         1 7PF      -0.394900
     20 O1           1.4500     2.2070     3.3260 op         1 7PF      -0.371600
     21 H1          -0.3710    -1.0010    -0.1840 hc         1 7PF       0.048700
     22 H2          -0.3710     0.6860    -0.7520 hc         1 7PF       0.048700
     23 H3           1.7590     1.2330    -1.7470 hc         1 7PF       0.030033
     24 H4           1.6450     2.1350    -0.2290 hc         1 7PF       0.030033
     25 H5           3.1390     1.2820    -0.6410 hc         1 7PF       0.030033
     26 H6           3.1380    -1.2880    -0.6280 hc         1 7PF       0.030033
     27 H7           1.6350    -2.1340    -0.2370 hc         1 7PF       0.030033
     28 H8           1.7710    -1.2260    -1.7490 hc         1 7PF       0.030033
     29 H9          -2.5530     0.1620     2.1000 ha         1 7PF       0.150000
     30 H11          1.8390    -2.0420     3.9800 h1         1 7PF       0.085700
     31 H12          0.2850    -2.8410     4.2570 h1         1 7PF       0.085700
     32 H13         -0.3340     2.6020     4.4280 h1         1 7PF       0.090700
     33 H14         -0.5330     2.4150     2.5650 h1         1 7PF       0.090700
     34 H15          2.5750     0.8890     1.6740 hc         1 7PF       0.050700
     35 H16          2.5750    -0.8890     1.6740 hc         1 7PF       0.050700
     36 H18         -0.5950     1.5410     1.4550 hc         1 7PF       0.051700
     37 H19          0.6520    -2.0890     1.9140 hc         1 7PF       0.069700
@<TRIPOS>BOND
     1     4     2 1
     2     3     2 1
     3     2     8 1
     4     2     1 1
     5     8    15 1
     6     1    12 1
     7    13    15 1
     8    13     6 1
     9    13    11 1
    10    19     6 1
    11    19    10 1
    12    15    12 1
    13    15    14 1
    14    18     9 1
    15    17    10 2
    16    10    14 1
    17    11     9 1
    18    11     5 2
    19    12     5 1
    20     9    16 1
    21    14    20 1
    22    14     7 1
    23    20     7 1
    24     1    21 1
    25     1    22 1
    26     3    23 1
    27     3    24 1
    28     3    25 1
    29     4    26 1
    30     4    27 1
    31     4    28 1
    32     5    29 1
    33     6    30 1
    34     6    31 1
    35     7    32 1
    36     7    33 1
    37     8    34 1
    38     8    35 1
    39    12    36 1
    40    13    37 1
@<TRIPOS>SUBSTRUCTURE
     1 7PF         1 TEMP              0 ****  ****    0 ROOT
