@<TRIPOS>MOLECULE
7PG
   62    61     1     0     0
SMALL
bcc


@<TRIPOS>ATOM
      1 OXT        -3.0210    0.4420    1.4110 oh        1 7PG     -0.600800
      2 C1         -2.4440    1.2000    0.3680 c3        1 7PG      0.131400
      3 C2         -0.9230    1.2310    0.4660 c3        1 7PG      0.080400
      4 O1         -0.6170    1.9430    1.6650 os        1 7PG     -0.442600
      5 C3          0.7870    2.0050    1.9090 c3        1 7PG      0.121400
      6 C4          0.9960    3.0310    3.0180 c3        1 7PG      0.126400
      7 O2          1.5280    4.1980    2.3930 os        1 7PG     -0.435600
      8 C5          1.7550    5.2580    3.3200 c3        1 7PG      0.126400
      9 C6          2.6670    6.2610    2.6200 c3        1 7PG      0.126400
     10 O3          3.9510    6.1290    3.2250 os        1 7PG     -0.428600
     11 C7          4.9490    6.9040    2.5640 c3        1 7PG      0.126400
     12 C8          6.2970    6.4250    3.0930 c3        1 7PG      0.127400
     13 O4          6.8290    5.5520    2.1000 os        1 7PG     -0.422600
     14 C9          8.0150    4.8900    2.5340 c3        1 7PG      0.126400
     15 C10         8.4490    3.9900    1.3830 c3        1 7PG      0.118400
     16 O5          9.5730    4.6210    0.7670 os        1 7PG     -0.426600
     17 C11         9.8980    4.0750   -0.5020 c3        1 7PG      0.130400
     18 C12         8.9250    4.5320   -1.5840 c3        1 7PG      0.094400
     19 O6          7.9130    3.5320   -1.6830 os        1 7PG     -0.434600
     20 C13         6.9340    3.8430   -2.6730 c3        1 7PG      0.126400
     21 C14         5.7490    2.9160   -2.4230 c3        1 7PG      0.127400
     22 O7          4.7060    3.7320   -1.8950 os        1 7PG     -0.427600
     23 C15         3.6070    2.9630   -1.4110 c3        1 7PG      0.128400
     24 C16         2.5970    3.9690   -0.8670 c3        1 7PG      0.114400
     25 O8          1.3090    3.4980   -1.2680 os        1 7PG     -0.437600
     26 C17         0.2670    4.3440   -0.8070 c3        1 7PG      0.107700
     27 HOXT       -2.7020    0.8190    2.2410 ho        1 7PG      0.412000
     28 H11        -2.8500    2.2460    0.3810 h1        1 7PG      0.051700
     29 H12        -2.7530    0.6800   -0.5780 h1        1 7PG      0.051700
     30 H21        -0.5070    0.1910    0.5310 h1        1 7PG      0.047700
     31 H22        -0.4750    1.7670   -0.4140 h1        1 7PG      0.047700
     32 H31         1.1430    0.9940    2.2400 h1        1 7PG      0.051200
     33 H32         1.3310    2.3140    0.9740 h1        1 7PG      0.051200
     34 H41         0.0260    3.2790    3.5250 h1        1 7PG      0.043700
     35 H42         1.7300    2.6450    3.7730 h1        1 7PG      0.043700
     36 H51         2.2400    4.8700    4.2550 h1        1 7PG      0.045700
     37 H52         0.7700    5.7310    3.5730 h1        1 7PG      0.045700
     38 H61         2.7290    6.0400    1.5200 h1        1 7PG      0.041700
     39 H62         2.2920    7.3070    2.7750 h1        1 7PG      0.041700
     40 H71         4.7930    7.9860    2.8170 h1        1 7PG      0.044700
     41 H72         4.8890    6.7610    1.4520 h1        1 7PG      0.044700
     42 H81         6.9920    7.2940    3.2320 h1        1 7PG      0.041200
     43 H82         6.1720    5.8800    4.0660 h1        1 7PG      0.041200
     44 H91         8.8080    5.6470    2.7760 h1        1 7PG      0.039700
     45 H92         7.7900    4.2760    3.4450 h1        1 7PG      0.039700
     46 H101        7.6170    3.8590    0.6390 h1        1 7PG      0.055700
     47 H102        8.7720    2.9890    1.7730 h1        1 7PG      0.055700
     48 H111       10.9200    4.4890   -0.7160 h1        1 7PG      0.058700
     49 H112        9.9340    2.9550   -0.4540 h1        1 7PG      0.058700
     50 H121        9.4540    4.6240   -2.5690 h1        1 7PG      0.041700
     51 H122        8.4620    5.5160   -1.3100 h1        1 7PG      0.041700
     52 H131        6.6190    4.9170   -2.5940 h1        1 7PG      0.044700
     53 H132        7.3750    3.6520   -3.6870 h1        1 7PG      0.044700
     54 H141        6.0220    2.1080   -1.6930 h1        1 7PG      0.042200
     55 H142        5.4010    2.4540   -3.3840 h1        1 7PG      0.042200
     56 H151        3.1620    2.3640   -2.2500 h1        1 7PG      0.039700
     57 H152        3.9550    2.2690   -0.6020 h1        1 7PG      0.039700
     58 H161        2.7800    4.9870   -1.3030 h1        1 7PG      0.053200
     59 H162        2.6460    4.0300    0.2540 h1        1 7PG      0.053200
     60 H171        0.4180    5.3920   -1.1660 h1        1 7PG      0.039033
     61 H172        0.2180    4.3190    0.3120 h1        1 7PG      0.039033
     62 H173       -0.6630    3.9110   -1.2540 h1        1 7PG      0.039033
@<TRIPOS>BOND
     1    1    2 1   
     2    1   27 1   
     3    2    3 1   
     4    2   28 1   
     5    2   29 1   
     6    3    4 1   
     7    3   30 1   
     8    3   31 1   
     9    4    5 1   
    10    5    6 1   
    11    5   32 1   
    12    5   33 1   
    13    6    7 1   
    14    6   34 1   
    15    6   35 1   
    16    7    8 1   
    17    8    9 1   
    18    8   36 1   
    19    8   37 1   
    20    9   10 1   
    21    9   38 1   
    22    9   39 1   
    23   10   11 1   
    24   11   12 1   
    25   11   40 1   
    26   11   41 1   
    27   12   13 1   
    28   12   42 1   
    29   12   43 1   
    30   13   14 1   
    31   14   15 1   
    32   14   44 1   
    33   14   45 1   
    34   15   16 1   
    35   15   46 1   
    36   15   47 1   
    37   16   17 1   
    38   17   18 1   
    39   17   48 1   
    40   17   49 1   
    41   18   19 1   
    42   18   50 1   
    43   18   51 1   
    44   19   20 1   
    45   20   21 1   
    46   20   52 1   
    47   20   53 1   
    48   21   22 1   
    49   21   54 1   
    50   21   55 1   
    51   22   23 1   
    52   23   24 1   
    53   23   56 1   
    54   23   57 1   
    55   24   25 1   
    56   24   58 1   
    57   24   59 1   
    58   25   26 1   
    59   26   60 1   
    60   26   61 1   
    61   26   62 1   
@<TRIPOS>SUBSTRUCTURE
     1 7PG         1 TEMP              0 ****  ****    0 ROOT
