@<TRIPOS>MOLECULE
molecule
   62    61     1     0     0
SMALL
bcc


@<TRIPOS>ATOM
      1 OXT          0.0000     0.0000     0.0000 oh         1 7PG      -0.597800
      2 C1           1.4220     0.0000     0.0000 c3         1 7PG       0.143400
      3 C2           1.9170     0.0000     1.4340 c3         1 7PG       0.136400
      4 O1           1.4500     1.1740     2.0870 os         1 7PG      -0.392600
      5 C3           1.8840     1.2270     3.4380 c3         1 7PG       0.136400
      6 C4           1.3770     2.5080     4.0720 c3         1 7PG       0.135400
      7 O2           1.9140     3.6200     3.3640 os         1 7PG      -0.387600
      8 C5           1.4700     4.8510     3.9170 c3         1 7PG       0.136400
      9 C6           2.0910     5.9950     3.1390 c3         1 7PG       0.136400
     10 O3           3.5070     5.9160     3.2500 os         1 7PG      -0.393600
     11 C7           4.1450     6.9680     2.5370 c3         1 7PG       0.135400
     12 C8           5.6460     6.8450     2.7130 c3         1 7PG       0.137400
     13 O4           6.0690     5.5780     2.2210 os         1 7PG      -0.379600
     14 C9           7.4720     5.4080     2.3600 c3         1 7PG       0.136400
     15 C10          7.8610     4.0450     1.8210 c3         1 7PG       0.135400
     16 O5           7.4790     3.9610     0.4530 os         1 7PG      -0.386600
     17 C11          7.8410     2.7090    -0.1120 c3         1 7PG       0.136400
     18 C12          7.4090     2.6790    -1.5650 c3         1 7PG       0.136400
     19 O6           5.9970     2.8320    -1.6340 os         1 7PG      -0.386600
     20 C13          5.5370     2.8340    -2.9790 c3         1 7PG       0.135400
     21 C14          4.0310     3.0000    -2.9870 c3         1 7PG       0.138400
     22 O7           3.6950     4.2230    -2.3410 os         1 7PG      -0.382600
     23 C15          2.2910     4.4420    -2.3390 c3         1 7PG       0.135400
     24 C16          1.9960     5.7560    -1.6410 c3         1 7PG       0.136400
     25 O8           2.6660     6.8060    -2.3260 os         1 7PG      -0.408600
     26 C17          2.4070     8.0680    -1.7260 c3         1 7PG       0.124700
     27 HOXT        -0.3140    -0.2700    -0.8470 ho         1 7PG       0.395000
     28 H11          1.7850     0.8850    -0.5090 h1         1 7PG       0.029200
     29 H12          1.7840    -0.8850    -0.5090 h1         1 7PG       0.029200
     30 H21          3.0000    -0.0140     1.4430 h1         1 7PG       0.029700
     31 H22          1.5390    -0.8750     1.9480 h1         1 7PG       0.029700
     32 H31          1.4910     0.3750     3.9790 h1         1 7PG       0.030700
     33 H32          2.9670     1.2090     3.4720 h1         1 7PG       0.030700
     34 H41          1.6930     2.5510     5.1070 h1         1 7PG       0.029700
     35 H42          0.2950     2.5340     4.0210 h1         1 7PG       0.029700
     36 H51          1.7720     4.9120     4.9550 h1         1 7PG       0.027700
     37 H52          0.3900     4.9110     3.8490 h1         1 7PG       0.027700
     38 H61          1.8050     5.9230     2.0970 h1         1 7PG       0.028700
     39 H62          1.7480     6.9390     3.5450 h1         1 7PG       0.028700
     40 H71          3.8120     7.9230     2.9250 h1         1 7PG       0.030700
     41 H72          3.8950     6.8970     1.4860 h1         1 7PG       0.030700
     42 H81          5.8970     6.9280     3.7630 h1         1 7PG       0.027200
     43 H82          6.1420     7.6330     2.1580 h1         1 7PG       0.027200
     44 H91          7.9880     6.1800     1.8020 h1         1 7PG       0.026700
     45 H92          7.7430     5.4750     3.4070 h1         1 7PG       0.026700
     46 H101         8.9330     3.9130     1.9070 h1         1 7PG       0.029200
     47 H102         7.3540     3.2730     2.3870 h1         1 7PG       0.029200
     48 H111         7.3470     1.9110     0.4290 h1         1 7PG       0.027700
     49 H112         8.9140     2.5790    -0.0500 h1         1 7PG       0.027700
     50 H121         7.6930     1.7320    -2.0080 h1         1 7PG       0.027700
     51 H122         7.8880     3.4880    -2.1020 h1         1 7PG       0.027700
     52 H131         5.8010     1.8970    -3.4540 h1         1 7PG       0.028700
     53 H132         5.9950     3.6550    -3.5170 h1         1 7PG       0.028700
     54 H141         3.5720     2.1730    -2.4590 h1         1 7PG       0.026200
     55 H142         3.6740     3.0200    -4.0100 h1         1 7PG       0.026200
     56 H151         1.7990     3.6330    -1.8130 h1         1 7PG       0.029200
     57 H152         1.9290     4.4840    -3.3590 h1         1 7PG       0.029200
     58 H161         2.3470     5.7090    -0.6170 h1         1 7PG       0.034200
     59 H162         0.9290     5.9400    -1.6500 h1         1 7PG       0.034200
     60 H171         2.2740     8.8150    -2.4990 h1         1 7PG       0.026367
     61 H172         3.2430     8.3460    -1.0950 h1         1 7PG       0.026367
     62 H173         1.5070     8.0050    -1.1260 h1         1 7PG       0.026367
@<TRIPOS>BOND
     1     1     2 1   
     2     1    27 1   
     3     2     3 1   
     4     2    28 1   
     5     2    29 1   
     6     3     4 1   
     7     3    30 1   
     8     3    31 1   
     9     4     5 1   
    10     5     6 1   
    11     5    32 1   
    12     5    33 1   
    13     6     7 1   
    14     6    34 1   
    15     6    35 1   
    16     7     8 1   
    17     8     9 1   
    18     8    36 1   
    19     8    37 1   
    20     9    10 1   
    21     9    38 1   
    22     9    39 1   
    23    10    11 1   
    24    11    12 1   
    25    11    40 1   
    26    11    41 1   
    27    12    13 1   
    28    12    42 1   
    29    12    43 1   
    30    13    14 1   
    31    14    15 1   
    32    14    44 1   
    33    14    45 1   
    34    15    16 1   
    35    15    46 1   
    36    15    47 1   
    37    16    17 1   
    38    17    18 1   
    39    17    48 1   
    40    17    49 1   
    41    18    19 1   
    42    18    50 1   
    43    18    51 1   
    44    19    20 1   
    45    20    21 1   
    46    20    52 1   
    47    20    53 1   
    48    21    22 1   
    49    21    54 1   
    50    21    55 1   
    51    22    23 1   
    52    23    24 1   
    53    23    56 1   
    54    23    57 1   
    55    24    25 1   
    56    24    58 1   
    57    24    59 1   
    58    25    26 1   
    59    26    60 1   
    60    26    61 1   
    61    26    62 1   
@<TRIPOS>SUBSTRUCTURE
     1 7PG         1 TEMP              0 ****  ****    0 ROOT
