@<TRIPOS>MOLECULE
7PH
   93    92     1     0     0
SMALL
bcc


@<TRIPOS>ATOM
      1 P          -2.4600    0.7220   -2.7760 p5        1 7PH      1.441800
      2 O12        -1.9240    1.9720   -3.3450 o         1 7PH     -0.849000
      3 O13        -3.1140    0.9990   -1.3000 oh        1 7PH     -0.789400
      4 O14        -3.4950   -0.1340   -3.4060 o         1 7PH     -0.849000
      5 O11        -1.1850   -0.2160   -2.3290 os        1 7PH     -0.586200
      6 C1         -1.4420   -1.3750   -1.5950 c3        1 7PH      0.196400
      7 C2         -0.8910   -2.6040   -2.3390 c3        1 7PH      0.121100
      8 C3         -0.1520   -3.5950   -1.4390 c3        1 7PH      0.150400
      9 O31        -0.9370   -3.8870   -0.2960 os        1 7PH     -0.479900
     10 O32         0.7160   -5.3190    0.2090 o         1 7PH     -0.574000
     11 C31        -0.4070   -4.8720    0.5720 c2        1 7PH      0.432100
     12 C32        -1.2190   -5.1590    1.6550 c2        1 7PH     -0.601200
     13 C33        -0.8360   -6.1550    2.6550 c3        1 7PH      0.076800
     14 C34        -0.7400   -5.5560    4.0540 c3        1 7PH     -0.084400
     15 C35        -0.3760   -6.6010    5.0870 c3        1 7PH     -0.078400
     16 C36        -0.2750   -6.0040    6.4750 c3        1 7PH     -0.079400
     17 C37         0.0930   -7.0500    7.5060 c3        1 7PH     -0.078400
     18 C38         0.1960   -6.4500    8.8920 c3        1 7PH     -0.079400
     19 C39         0.5660   -7.4960    9.9210 c3        1 7PH     -0.078400
     20 C3A         0.6700   -6.8950   11.3060 c3        1 7PH     -0.079400
     21 C3B         1.0410   -7.9400   12.3370 c3        1 7PH     -0.080400
     22 C3C         1.1450   -7.3460   13.7180 c3        1 7PH     -0.091100
     23 O21        -2.0460   -3.2550   -2.9130 os        1 7PH     -0.404900
     24 O22        -0.9350   -3.6970   -4.8250 o         1 7PH     -0.592000
     25 C21        -2.0050   -3.6530   -4.2060 c         1 7PH      0.647100
     26 C22        -3.3670   -4.0200   -4.7280 c3        1 7PH     -0.121400
     27 C23        -4.0620   -2.7750   -5.2420 c3        1 7PH     -0.112400
     28 C24        -5.5110   -3.0550   -5.5720 c3        1 7PH     -0.061400
     29 C25        -6.2020   -1.7870   -6.0290 c3        1 7PH     -0.087400
     30 C26        -7.6790   -2.0170   -6.2700 c3        1 7PH     -0.075400
     31 C27        -8.3620   -0.7480   -6.7340 c3        1 7PH     -0.080400
     32 C28        -9.8410   -0.9700   -6.9680 c3        1 7PH     -0.077400
     33 C29       -10.5210    0.2990   -7.4340 c3        1 7PH     -0.080400
     34 C2A       -12.0000    0.0790   -7.6680 c3        1 7PH     -0.078400
     35 C2B       -12.6790    1.3490   -8.1350 c3        1 7PH     -0.079400
     36 C2C       -14.1580    1.1280   -8.3710 c3        1 7PH     -0.078400
     37 C2D       -14.8380    2.3980   -8.8370 c3        1 7PH     -0.081400
     38 C2E       -16.3100    2.1830   -9.0740 c3        1 7PH     -0.091100
     39 H1         -0.9100   -1.3020   -0.6060 h1        1 7PH      0.045200
     40 H1A        -2.5470   -1.4960   -1.4260 h1        1 7PH      0.045200
     41 H2         -0.1910   -2.2770   -3.1570 h1        1 7PH      0.076700
     42 H3          0.8220   -3.1380   -1.1180 h1        1 7PH      0.031200
     43 H3A         0.0610   -4.5380   -2.0090 h1        1 7PH      0.031200
     44 H32        -3.8480    0.4210   -1.1250 ho        1 7PH      0.423000
     45 H32A       -2.1720   -4.6440    1.7740 ha        1 7PH      0.099000
     46 H33        -1.5910   -6.9930    2.6980 hc        1 7PH     -0.008300
     47 H33A        0.1520   -6.6190    2.3890 hc        1 7PH     -0.008300
     48 H34        -1.7200   -5.0840    4.3250 hc        1 7PH      0.028200
     49 H34A        0.0310   -4.7430    4.0510 hc        1 7PH      0.028200
     50 H35         0.6020   -7.0750    4.8110 hc        1 7PH      0.025700
     51 H35A       -1.1480   -7.4160    5.0860 hc        1 7PH      0.025700
     52 H36         0.4950   -5.1890    6.4750 hc        1 7PH      0.034700
     53 H36A       -1.2540   -5.5320    6.7520 hc        1 7PH      0.034700
     54 H37        -0.6780   -7.8650    7.5060 hc        1 7PH      0.033200
     55 H37A        1.0720   -7.5220    7.2270 hc        1 7PH      0.033200
     56 H38        -0.7830   -5.9780    9.1700 hc        1 7PH      0.036700
     57 H38A        0.9660   -5.6340    8.8900 hc        1 7PH      0.036700
     58 H39        -0.2040   -8.3120    9.9220 hc        1 7PH      0.036200
     59 H39A        1.5450   -7.9670    9.6420 hc        1 7PH      0.036200
     60 H3AA       -0.3090   -6.4240   11.5860 hc        1 7PH      0.038200
     61 H3AB        1.4400   -6.0790   11.3050 hc        1 7PH      0.038200
     62 H3B         0.2700   -8.7560   12.3350 hc        1 7PH      0.036200
     63 H3BA        2.0190   -8.4110   12.0540 hc        1 7PH      0.036200
     64 H3C         0.1720   -6.8930   14.0260 hc        1 7PH      0.027700
     65 H3CA        1.9260   -6.5480   13.7450 hc        1 7PH      0.027700
     66 H3CB        1.4200   -8.1330   14.4610 hc        1 7PH      0.027700
     67 H22        -3.2450   -4.7780   -5.5430 hc        1 7PH      0.052700
     68 H22A       -3.9640   -4.4790   -3.8970 hc        1 7PH      0.052700
     69 H23        -3.9960   -1.9540   -4.4630 hc        1 7PH      0.097700
     70 H23A       -3.5310   -2.4010   -6.1550 hc        1 7PH      0.097700
     71 H24        -5.5850   -3.8380   -6.3720 hc        1 7PH      0.019700
     72 H24A       -6.0320   -3.4580   -4.6640 hc        1 7PH      0.019700
     73 H25        -5.7200   -1.4160   -6.9710 hc        1 7PH      0.058700
     74 H25A       -6.0580   -0.9900   -5.2490 hc        1 7PH      0.058700
     75 H26        -8.1620   -2.3780   -5.3240 hc        1 7PH      0.028200
     76 H26A       -7.8170   -2.8220   -7.0390 hc        1 7PH      0.028200
     77 H27        -7.8810   -0.3880   -7.6810 hc        1 7PH      0.043700
     78 H27A       -8.2170    0.0560   -5.9650 hc        1 7PH      0.043700
     79 H28        -9.9850   -1.7770   -7.7340 hc        1 7PH      0.033200
     80 H28A      -10.3210   -1.3270   -6.0190 hc        1 7PH      0.033200
     81 H29       -10.0390    0.6580   -8.3810 hc        1 7PH      0.040200
     82 H29A      -10.3770    1.1050   -6.6660 hc        1 7PH      0.040200
     83 H2A       -12.1430   -0.7280   -8.4350 hc        1 7PH      0.035700
     84 H2AA      -12.4820   -0.2790   -6.7200 hc        1 7PH      0.035700
     85 H2B       -12.1960    1.7070   -9.0820 hc        1 7PH      0.039700
     86 H2BA      -12.5370    2.1540   -7.3670 hc        1 7PH      0.039700
     87 H2C       -14.6400    0.7700   -7.4230 hc        1 7PH      0.037200
     88 H2CA      -14.3000    0.3230   -9.1380 hc        1 7PH      0.037200
     89 H2D       -14.6930    3.2020   -8.0680 hc        1 7PH      0.038200
     90 H2DA      -14.3520    2.7560   -9.7830 hc        1 7PH      0.038200
     91 H2E       -16.4740    1.4020   -9.8550 hc        1 7PH      0.028367
     92 H2EA      -16.8160    1.8500   -8.1350 hc        1 7PH      0.028367
     93 H2EB      -16.7920    3.1310   -9.4160 hc        1 7PH      0.028367
@<TRIPOS>BOND
     1    1    2 1   
     2    1    3 1   
     3    1    4 1   
     4    1    5 1   
     5    3   44 1   
     6    5    6 1   
     7    6    7 1   
     8    6   39 1   
     9    6   40 1   
    10    7    8 1   
    11    7   23 1   
    12    7   41 1   
    13    8    9 1   
    14    8   42 1   
    15    8   43 1   
    16    9   11 1   
    17   10   11 1   
    18   11   12 2   
    19   12   13 1   
    20   12   45 1   
    21   13   14 1   
    22   13   46 1   
    23   13   47 1   
    24   14   15 1   
    25   14   48 1   
    26   14   49 1   
    27   15   16 1   
    28   15   50 1   
    29   15   51 1   
    30   16   17 1   
    31   16   52 1   
    32   16   53 1   
    33   17   18 1   
    34   17   54 1   
    35   17   55 1   
    36   18   19 1   
    37   18   56 1   
    38   18   57 1   
    39   19   20 1   
    40   19   58 1   
    41   19   59 1   
    42   20   21 1   
    43   20   60 1   
    44   20   61 1   
    45   21   22 1   
    46   21   62 1   
    47   21   63 1   
    48   22   64 1   
    49   22   65 1   
    50   22   66 1   
    51   23   25 1   
    52   24   25 2   
    53   25   26 1   
    54   26   27 1   
    55   26   67 1   
    56   26   68 1   
    57   27   28 1   
    58   27   69 1   
    59   27   70 1   
    60   28   29 1   
    61   28   71 1   
    62   28   72 1   
    63   29   30 1   
    64   29   73 1   
    65   29   74 1   
    66   30   31 1   
    67   30   75 1   
    68   30   76 1   
    69   31   32 1   
    70   31   77 1   
    71   31   78 1   
    72   32   33 1   
    73   32   79 1   
    74   32   80 1   
    75   33   34 1   
    76   33   81 1   
    77   33   82 1   
    78   34   35 1   
    79   34   83 1   
    80   34   84 1   
    81   35   36 1   
    82   35   85 1   
    83   35   86 1   
    84   36   37 1   
    85   36   87 1   
    86   36   88 1   
    87   37   38 1   
    88   37   89 1   
    89   37   90 1   
    90   38   91 1   
    91   38   92 1   
    92   38   93 1   
@<TRIPOS>SUBSTRUCTURE
     1 7PH         1 TEMP              0 ****  ****    0 ROOT
