@<TRIPOS>MOLECULE
molecule
   93    92     1     0     0
SMALL
bcc


@<TRIPOS>ATOM
      1 P            0.0000     0.0000     0.0000 p5         1 7PH       1.176900
      2 O12          1.6110     0.0000     0.0000 o          1 7PH      -0.909833
      3 O13         -0.5360     0.0000     1.5180 o          1 7PH      -0.909833
      4 O14         -0.4930     1.2080    -0.6980 o          1 7PH      -0.909833
      5 O11         -0.5370    -1.3150    -0.7590 os         1 7PH      -0.560200
      6 C1          -0.3180    -1.5530    -2.1510 c3         1 7PH       0.206400
      7 C2          -0.9570    -2.8870    -2.5470 c3         1 7PH       0.131100
      8 C3          -0.4160    -3.9990    -1.6440 c3         1 7PH       0.165400
      9 O31         -0.6320    -3.6410    -0.2540 os         1 7PH      -0.311900
     10 O32          0.3190    -5.5480     0.3330 o          1 7PH      -0.633000
     11 C31         -0.2120    -4.5170     0.6720 c          1 7PH       0.643100
     12 C32         -0.4030    -4.2160     2.1370 c3         1 7PH      -0.127400
     13 C33          0.1590    -5.3670     2.9720 c3         1 7PH      -0.071400
     14 C34         -0.0350    -5.0610     4.4580 c3         1 7PH      -0.083400
     15 C35          0.5280    -6.2120     5.2940 c3         1 7PH      -0.081400
     16 C36          0.3340    -5.9060     6.7810 c3         1 7PH      -0.082400
     17 C37          0.8970    -7.0580     7.6160 c3         1 7PH      -0.082400
     18 C38          0.7030    -6.7510     9.1030 c3         1 7PH      -0.082400
     19 C39          1.2660    -7.9030     9.9380 c3         1 7PH      -0.082400
     20 C3A          1.0720    -7.5970    11.4240 c3         1 7PH      -0.082400
     21 C3B          1.6350    -8.7480    12.2600 c3         1 7PH      -0.084400
     22 C3C          1.4410    -8.4420    13.7470 c3         1 7PH      -0.092100
     23 O21         -2.3980    -2.7970    -2.3930 os         1 7PH      -0.387900
     24 O22         -2.5280    -2.0960    -4.4850 o          1 7PH      -0.587000
     25 C21         -3.1000    -2.3790    -3.4580 c          1 7PH       0.639100
     26 C22         -4.6000    -2.2610    -3.3740 c3         1 7PH      -0.129400
     27 C23         -5.1490    -1.7660    -4.7130 c3         1 7PH      -0.071400
     28 C24         -6.6710    -1.6480    -4.6280 c3         1 7PH      -0.084400
     29 C25         -7.2200    -1.1530    -5.9670 c3         1 7PH      -0.080400
     30 C26         -8.7430    -1.0330    -5.8820 c3         1 7PH      -0.082400
     31 C27         -9.2920    -0.5400    -7.2220 c3         1 7PH      -0.082400
     32 C28        -10.8150    -0.4200    -7.1360 c3         1 7PH      -0.082400
     33 C29        -11.3640     0.0740    -8.4750 c3         1 7PH      -0.082400
     34 C2A        -12.8870     0.1940    -8.3900 c3         1 7PH      -0.082400
     35 C2B        -13.4360     0.6880    -9.7300 c3         1 7PH      -0.082400
     36 C2C        -14.9590     0.8070    -9.6440 c3         1 7PH      -0.081400
     37 C2D        -15.5080     1.3010   -10.9850 c3         1 7PH      -0.084400
     38 C2E        -17.0310     1.4200   -10.8990 c3         1 7PH      -0.092100
     39 H1           0.7470    -1.5900    -2.3480 h1         1 7PH       0.027700
     40 H1A         -0.7650    -0.7530    -2.7290 h1         1 7PH       0.027700
     41 H2          -0.7160    -3.1100    -3.5790 h1         1 7PH       0.045700
     42 H3           0.6450    -4.1250    -1.8240 h1         1 7PH       0.032200
     43 H3A         -0.9320    -4.9250    -1.8640 h1         1 7PH       0.032200
     44 H32          0.1170    -3.3000     2.3880 hc         1 7PH       0.099200
     45 H32A        -1.4600    -4.1010     2.3460 hc         1 7PH       0.099200
     46 H33          1.2160    -5.4830     2.7620 hc         1 7PH       0.042200
     47 H33A        -0.3610    -6.2840     2.7210 hc         1 7PH       0.042200
     48 H34          0.4860    -4.1450     4.7090 hc         1 7PH       0.048700
     49 H34A        -1.0910    -4.9450     4.6680 hc         1 7PH       0.048700
     50 H35          0.0070    -7.1280     5.0430 hc         1 7PH       0.034700
     51 H35A         1.5840    -6.3280     5.0840 hc         1 7PH       0.034700
     52 H36         -0.7220    -5.7900     6.9910 hc         1 7PH       0.043200
     53 H36A         0.8550    -4.9900     7.0320 hc         1 7PH       0.043200
     54 H37          1.9540    -7.1740     7.4060 hc         1 7PH       0.036700
     55 H37A         0.3760    -7.9740     7.3650 hc         1 7PH       0.036700
     56 H38         -0.3540    -6.6350     9.3130 hc         1 7PH       0.041700
     57 H38A         1.2240    -5.8350     9.3540 hc         1 7PH       0.041700
     58 H39          2.3220    -8.0190     9.7280 hc         1 7PH       0.038200
     59 H39A         0.7450    -8.8190     9.6870 hc         1 7PH       0.038200
     60 H3AA         0.0150    -7.4810    11.6340 hc         1 7PH       0.041200
     61 H3AB         1.5920    -6.6800    11.6750 hc         1 7PH       0.041200
     62 H3B          1.1150    -9.6650    12.0100 hc         1 7PH       0.037700
     63 H3BA         2.6910    -8.8640    12.0510 hc         1 7PH       0.037700
     64 H3C          1.8400    -9.2570    14.3390 hc         1 7PH       0.029033
     65 H3CA         1.9610    -7.5250    13.9980 hc         1 7PH       0.029033
     66 H3CB         0.3840    -8.3270    13.9570 hc         1 7PH       0.029033
     67 H22         -5.0260    -3.2300    -3.1450 hc         1 7PH       0.068700
     68 H22A        -4.8630    -1.5570    -2.5940 hc         1 7PH       0.068700
     69 H23         -4.7230    -0.7970    -4.9420 hc         1 7PH       0.055700
     70 H23A        -4.8840    -2.4700    -5.4940 hc         1 7PH       0.055700
     71 H24         -6.9360    -0.9440    -3.8470 hc         1 7PH       0.038700
     72 H24A        -7.0970    -2.6180    -4.3990 hc         1 7PH       0.038700
     73 H25         -6.7940    -0.1840    -6.1960 hc         1 7PH       0.042200
     74 H25A        -6.9570    -1.8570    -6.7470 hc         1 7PH       0.042200
     75 H26         -9.0070    -0.3290    -5.1030 hc         1 7PH       0.039200
     76 H26A        -9.1690    -2.0020    -5.6520 hc         1 7PH       0.039200
     77 H27         -8.8660     0.4290    -7.4520 hc         1 7PH       0.040200
     78 H27A        -9.0290    -1.2440    -8.0020 hc         1 7PH       0.040200
     79 H28        -11.2410    -1.3890    -6.9070 hc         1 7PH       0.039700
     80 H28A       -11.0780     0.2840    -6.3560 hc         1 7PH       0.039700
     81 H29        -10.9380     1.0430    -8.7050 hc         1 7PH       0.040200
     82 H29A       -11.1010    -0.6300    -9.2550 hc         1 7PH       0.040200
     83 H2A        -13.3140    -0.7750    -8.1610 hc         1 7PH       0.040200
     84 H2AA       -13.1510     0.8980    -7.6110 hc         1 7PH       0.040200
     85 H2B        -13.0100     1.6570    -9.9600 hc         1 7PH       0.040200
     86 H2BA       -13.1720    -0.0170   -10.5100 hc         1 7PH       0.040200
     87 H2C        -15.2230     1.5110    -8.8650 hc         1 7PH       0.040700
     88 H2CA       -15.3850    -0.1620    -9.4150 hc         1 7PH       0.040700
     89 H2D        -15.0820     2.2700   -11.2150 hc         1 7PH       0.039200
     90 H2DA       -15.2440     0.5970   -11.7650 hc         1 7PH       0.039200
     91 H2E        -17.4570     0.4510   -10.6690 hc         1 7PH       0.030033
     92 H2EA       -17.4200     1.7700   -11.8480 hc         1 7PH       0.030033
     93 H2EB       -17.2950     2.1240   -10.1190 hc         1 7PH       0.030033
@<TRIPOS>BOND
     1     5     1 1   
     2     4     1 1   
     3     1     3 1   
     4     1     2 1   
     5     6     5 1   
     6     7     6 1   
     7     6    39 1   
     8     6    40 1   
     9     8     7 1   
    10     7    23 1   
    11     7    41 1   
    12     9     8 1   
    13     8    42 1   
    14     8    43 1   
    15    11     9 1   
    16    11    10 2   
    17    12    11 1   
    18    13    12 1   
    19    12    44 1   
    20    12    45 1   
    21    13    14 1   
    22    13    46 1   
    23    13    47 1   
    24    14    15 1   
    25    14    48 1   
    26    14    49 1   
    27    15    16 1   
    28    15    50 1   
    29    15    51 1   
    30    16    17 1   
    31    16    52 1   
    32    16    53 1   
    33    17    18 1   
    34    17    54 1   
    35    17    55 1   
    36    18    19 1   
    37    18    56 1   
    38    18    57 1   
    39    19    20 1   
    40    19    58 1   
    41    19    59 1   
    42    20    21 1   
    43    20    60 1   
    44    20    61 1   
    45    21    22 1   
    46    21    62 1   
    47    21    63 1   
    48    22    64 1   
    49    22    65 1   
    50    22    66 1   
    51    25    23 1   
    52    24    25 2   
    53    25    26 1   
    54    27    26 1   
    55    26    67 1   
    56    26    68 1   
    57    28    27 1   
    58    27    69 1   
    59    27    70 1   
    60    29    28 1   
    61    28    71 1   
    62    28    72 1   
    63    30    29 1   
    64    29    73 1   
    65    29    74 1   
    66    31    30 1   
    67    30    75 1   
    68    30    76 1   
    69    31    32 1   
    70    31    77 1   
    71    31    78 1   
    72    32    33 1   
    73    32    79 1   
    74    32    80 1   
    75    33    34 1   
    76    33    81 1   
    77    33    82 1   
    78    34    35 1   
    79    34    83 1   
    80    34    84 1   
    81    35    36 1   
    82    35    85 1   
    83    35    86 1   
    84    36    37 1   
    85    36    87 1   
    86    36    88 1   
    87    37    38 1   
    88    37    89 1   
    89    37    90 1   
    90    38    91 1   
    91    38    92 1   
    92    38    93 1   
@<TRIPOS>SUBSTRUCTURE
     1 7PH         1 TEMP              0 ****  ****    0 ROOT
