@<TRIPOS>MOLECULE
molecule
   23    24     1     0     0
SMALL
bcc


@<TRIPOS>ATOM
      1 C1           0.0000     0.0000     0.0000 cc         1 7PJ       0.350800
      2 C2           1.3970     0.0000     0.0000 cd         1 7PJ      -0.020200
      3 C3          -0.6760     0.0010     1.2410 c          1 7PJ       0.620000
      4 C4           1.4210     0.0010     2.3100 cc         1 7PJ       0.349800
      5 C5           0.6430    -0.0030    -2.0780 cd         1 7PJ       0.592800
      6 C6          -1.4800    -0.0060    -5.5880 c          1 7PJ       0.902600
      7 C7          -1.1930    -0.0050    -4.1080 c3         1 7PJ      -0.110300
      8 N8           2.0610     0.0000     1.1610 nd         1 7PJ      -0.533100
      9 N9           1.7810    -0.0010    -1.3190 na         1 7PJ      -0.281900
     10 N10          0.0600     0.0020     2.3740 ns         1 7PJ      -0.467400
     11 N11         -0.4080    -0.0070    -1.2960 nc         1 7PJ      -0.637000
     12 N12          2.1450     0.0010     3.4760 nz         1 7PJ      -0.704600
     13 O13         -2.7480    -0.0060    -6.0260 o          1 7PJ      -0.799800
     14 O14         -0.5670    -0.0060    -6.3790 o          1 7PJ      -0.799800
     15 O15         -1.8960     0.0010     1.2880 o          1 7PJ      -0.548500
     16 S16          0.5970    -0.0040    -3.8400 ss         1 7PJ      -0.127400
     17 H1          -1.6250     0.8800    -3.6570 h1         1 7PJ       0.081700
     18 H2          -1.6250    -0.8890    -3.6550 h1         1 7PJ       0.081700
     19 H3           2.7210     0.0020    -1.6620 hn         1 7PJ       0.329700
     20 H4          -0.3970     0.0030     3.2640 hn         1 7PJ       0.335500
     21 H6           1.9200     0.8190     4.0080 hn         1 7PJ       0.462467
     22 H7           1.9190    -0.8160     4.0090 hn         1 7PJ       0.462467
     23 H123         3.1230     0.0000     3.2630 hn         1 7PJ       0.462467
@<TRIPOS>BOND
     1    13     6 1   
     2     6    14 1   
     3     6     7 1   
     4    15     3 2   
     5     7    16 1   
     6     3     1 1   
     7     3    10 1   
     8    11     1 1   
     9    11     5 2   
    10     1     2 2   
    11    10     4 1   
    12    16     5 1   
    13     5     9 1   
    14     2     9 1   
    15     2     8 1   
    16     4     8 2   
    17     4    12 1   
    18     7    17 1   
    19     7    18 1   
    20     9    19 1   
    21    10    20 1   
    22    12    21 1   
    23    12    22 1   
    24    23    12 1   
@<TRIPOS>SUBSTRUCTURE
     1 7PJ         1 TEMP              0 ****  ****    0 ROOT
