@<TRIPOS>MOLECULE
7PM
   33    35     1     0     0
SMALL
bcc


@<TRIPOS>ATOM
      1 C1           0.0000     0.0000     0.0000 ca         1 7PM      -0.107000
      2 C2           1.3820     0.0000     0.0000 ca         1 7PM      -0.119500
      3 C3          -0.6910    -0.0000     1.1970 ca         1 7PM      -0.119500
      4 C4           2.0740     0.0000     1.1970 ca         1 7PM      -0.075000
      5 C5           0.0000    -0.0060     2.3940 ca         1 7PM      -0.075000
      6 C6           1.3820    -0.0000     2.3940 ca         1 7PM      -0.058300
      7 C7           4.3350     0.5040     7.3330 cc         1 7PM       0.320800
      8 C8           3.8660     1.6880     7.9120 cd         1 7PM      -0.291200
      9 C9           2.8020     1.3020     6.0120 cd         1 7PM       0.424800
     10 C10          5.3520    -0.2160     7.9990 c          1 7PM       0.516000
     11 C11          5.3290     1.4310     9.6810 cc         1 7PM      -0.115200
     12 C12          1.7710    -1.2320     4.4900 c          1 7PM       0.960600
     13 C13          2.1350    -0.0010     3.7000 c3         1 7PM       0.045700
     14 N14          3.6500     0.3180     6.1750 nc         1 7PM      -0.447000
     15 N15          4.3820     2.1100     9.0710 nd         1 7PM      -0.328100
     16 N16          2.8980     2.1710     7.0650 na         1 7PM       0.291100
     17 N17          5.8270     0.2720     9.1660 ns         1 7PM      -0.016400
     18 N18          5.8290     1.9040    10.8690 nz         1 7PM       0.257400
     19 O20          5.7920    -1.2530     7.5310 o          1 7PM      -0.564500
     20 S22          1.6980     1.4770     4.6490 ss         1 7PM      -0.327400
     21 H1          -0.5390     0.0020    -0.9400 ha         1 7PM       0.092000
     22 H2           1.9230     0.0110    -0.9380 ha         1 7PM       0.096000
     23 H3          -1.7750    -0.0080     1.2000 ha         1 7PM       0.096000
     24 H4           3.1570    -0.0010     1.1880 ha         1 7PM       0.128000
     25 H5          -0.5460    -0.0080     3.3300 ha         1 7PM       0.128000
     26 H6           3.2020    -0.0010     3.5080 h1         1 7PM       0.062700
     27 H8           2.3630     3.0060     7.1950 hn         1 7PM       0.140700
     28 H9           6.5470    -0.2210     9.6560 hn         1 7PM       0.174500
     29 H10          5.1170     2.4020    11.3640 hn         1 7PM       0.197800
     30 H11          6.1400     1.1380    11.4330 hn         1 7PM       0.197800
     31 O21          0.4810    -1.5500     4.6790 o          1 7PM      -0.841300
     32 H183         6.6060     2.5060    10.6750 hn         1 7PM       0.197800
     33 O19          2.6400    -1.9320     4.9520 o          1 7PM      -0.841300
@<TRIPOS>BOND
     1     1     2 ar  
     2     1     3 ar  
     3     1    21 1   
     4     2     4 ar  
     5     2    22 1   
     6     3     5 ar  
     7     3    23 1   
     8     4     6 ar  
     9     4    24 1   
    10     5     6 ar  
    11     5    25 1   
    12     6    13 1   
    13     7     8 2   
    14     7    10 1   
    15     7    14 1   
    16     8    15 1   
    17     8    16 1   
    18     9    14 2   
    19     9    16 1   
    20     9    20 1   
    21    10    17 1   
    22    10    19 2   
    23    11    15 2   
    24    11    17 1   
    25    11    18 1   
    26    12    13 1   
    27    12    31 1   
    28    12    33 1   
    29    13    20 1   
    30    13    26 1   
    31    16    27 1   
    32    17    28 1   
    33    18    29 1   
    34    18    30 1   
    35    18    32 1   
@<TRIPOS>SUBSTRUCTURE
     1 7PM         1 TEMP              0 ****  ****    0 ROOT
