@<TRIPOS>MOLECULE
7PP
   53    55     1     0     0
SMALL
bcc


@<TRIPOS>ATOM
      1 CL          0.6880    0.8300    0.0330 cl        1 7PP     -0.134000
      2 C1          2.3220    0.8080   -0.4690 ca        1 7PP      0.606300
      3 N5          3.2670    1.0710    0.4470 nb        1 7PP     -0.759000
      4 C21         4.6010    1.0580    0.0220 ca        1 7PP      0.884900
      5 N4          5.5610    1.4480    0.9670 nh        1 7PP     -0.920500
      6 N3          5.0490    0.7520   -1.2490 nb        1 7PP     -0.770000
      7 C20         4.0530    0.5000   -2.1410 ca        1 7PP      0.490800
      8 C2          2.6300    0.5110   -1.8090 ca        1 7PP     -0.332400
      9 N1          4.1700    0.2140   -3.5120 na        1 7PP     -0.165100
     10 C11         5.3940    0.0150   -4.2330 c3        1 7PP     -0.002000
     11 C12         5.7600   -1.4460   -4.4530 ca        1 7PP      0.367600
     12 C18         6.9630   -1.9680   -3.9270 ca        1 7PP     -0.162600
     13 C19         7.8990   -1.1490   -3.1270 c3        1 7PP     -0.061800
     14 C16         7.2530   -3.3220   -4.2020 ca        1 7PP      0.117100
     15 O2          8.4800   -3.8410   -3.8040 os        1 7PP     -0.343900
     16 C17         8.4020   -4.6500   -2.6290 c3        1 7PP      0.115700
     17 C14         6.3650   -4.1040   -4.9570 ca        1 7PP     -0.192600
     18 C15         6.6230   -5.5240   -5.2710 c3        1 7PP     -0.052800
     19 C13         5.1920   -3.4690   -5.4210 ca        1 7PP      0.400200
     20 N2          4.8890   -2.1860   -5.1840 nb        1 7PP     -0.662000
     21 C10         2.8810   -0.0010   -4.0240 cc        1 7PP     -0.060100
     22 C3          1.9190    0.1880   -3.0260 cd        1 7PP      0.039100
     23 C4          0.5440    0.0840   -3.1950 ch        1 7PP     -0.118300
     24 C5         -0.6400   -0.0090   -3.3540 c1        1 7PP     -0.119100
     25 C6         -2.0570   -0.0980   -3.5190 c3        1 7PP     -0.023300
     26 C7         -2.4930   -0.8890   -4.7660 c3        1 7PP      0.155800
     27 C9         -1.9610   -2.3150   -4.7260 c3        1 7PP     -0.105100
     28 C8         -4.0180   -0.8900   -4.8330 c3        1 7PP     -0.105100
     29 O1         -1.9660   -0.3090   -5.9560 oh        1 7PP     -0.590800
     30 HN4         5.2790    1.4040    1.9200 hn        1 7PP      0.423800
     31 HN4A        6.4980    1.1720    0.7790 hn        1 7PP      0.423800
     32 H11         6.2240    0.5360   -3.6790 h1        1 7PP      0.085200
     33 H11A        5.2810    0.5050   -5.2460 h1        1 7PP      0.085200
     34 H19         8.3410   -0.3360   -3.7570 hc        1 7PP      0.058367
     35 H19A        8.7390   -1.7760   -2.7350 hc        1 7PP      0.058367
     36 H19B        7.3720   -0.6810   -2.2570 hc        1 7PP      0.058367
     37 H17         9.4520   -5.0070   -2.4840 h1        1 7PP      0.043700
     38 H17A        7.7070   -5.5090   -2.7920 h1        1 7PP      0.043700
     39 H17B        8.0660   -4.0350   -1.7590 h1        1 7PP      0.043700
     40 H15         6.1060   -6.1830   -4.5270 hc        1 7PP      0.052700
     41 H15A        7.7200   -5.7430   -5.2350 hc        1 7PP      0.052700
     42 H15B        6.2400   -5.7800   -6.2900 hc        1 7PP      0.052700
     43 H13         4.4550   -4.0330   -6.0220 h4        1 7PP      0.027100
     44 H10         2.7460   -0.2790   -5.0730 h4        1 7PP      0.195000
     45 H6         -2.5060   -0.5960   -2.6140 hc        1 7PP      0.062200
     46 H6A        -2.4880    0.9410   -3.5820 hc        1 7PP      0.062200
     47 H9         -2.3860   -2.8490   -3.8440 hc        1 7PP      0.045700
     48 H9A        -2.2500   -2.8530   -5.6600 hc        1 7PP      0.045700
     49 H9B        -0.8470   -2.3030   -4.6490 hc        1 7PP      0.045700
     50 H8         -4.3510   -1.4190   -5.7580 hc        1 7PP      0.045700
     51 H8A        -4.4430   -1.4100   -3.9430 hc        1 7PP      0.045700
     52 H8B        -4.4070    0.1550   -4.8630 hc        1 7PP      0.045700
     53 HO1        -2.2080    0.6240   -5.9450 ho        1 7PP      0.398000
@<TRIPOS>BOND
     1    1    2 1   
     2    2    3 ar  
     3    2    8 ar  
     4    3    4 ar  
     5    4    5 1   
     6    4    6 ar  
     7    5   30 1   
     8    5   31 1   
     9    6    7 ar  
    10    7    8 ar  
    11    7    9 1   
    12    8   22 1   
    13    9   10 1   
    14    9   21 1   
    15   10   11 1   
    16   10   32 1   
    17   10   33 1   
    18   11   12 ar  
    19   11   20 ar  
    20   12   13 1   
    21   12   14 ar  
    22   13   34 1   
    23   13   35 1   
    24   13   36 1   
    25   14   15 1   
    26   14   17 ar  
    27   15   16 1   
    28   16   37 1   
    29   16   38 1   
    30   16   39 1   
    31   17   18 1   
    32   17   19 ar  
    33   18   40 1   
    34   18   41 1   
    35   18   42 1   
    36   19   20 ar  
    37   19   43 1   
    38   21   22 2   
    39   21   44 1   
    40   22   23 1   
    41   23   24 3   
    42   24   25 1   
    43   25   26 1   
    44   25   45 1   
    45   25   46 1   
    46   26   27 1   
    47   26   28 1   
    48   26   29 1   
    49   27   47 1   
    50   27   48 1   
    51   27   49 1   
    52   28   50 1   
    53   28   51 1   
    54   28   52 1   
    55   29   53 1   
@<TRIPOS>SUBSTRUCTURE
     1 7PP         1 TEMP              0 ****  ****    0 ROOT
