@<TRIPOS>MOLECULE
molecule
   53    55     1     0     0
SMALL
bcc


@<TRIPOS>ATOM
      1 Cl           0.0000     0.0000     0.0000 cl         1 7PP      -0.138000
      2 C1           1.7360     0.0000     0.0000 ca         1 7PP       0.634300
      3 N5           2.4130     0.0000     1.1370 nb         1 7PP      -0.808000
      4 C21          3.7400    -0.0010     1.1450 ca         1 7PP       0.959900
      5 N4           4.4000    -0.0010     2.3620 nv         1 7PP      -0.950500
      6 N3           4.4540    -0.0010     0.0330 nb         1 7PP      -0.770000
      7 C20          3.8540    -0.0000    -1.1550 ca         1 7PP       0.500800
      8 C2           2.4460    -0.0050    -1.1990 ca         1 7PP      -0.359400
      9 N1           4.3030    -0.0000    -2.4490 na         1 7PP      -0.218100
     10 C11          5.7140    -0.0010    -2.8450 c3         1 7PP      -0.159000
     11 C12          6.2310    -1.4170    -2.8610 ca         1 7PP       0.285600
     12 C18          6.1410    -2.1610    -4.0200 ca         1 7PP      -0.171600
     13 C19          5.5330    -1.5670    -5.2640 c3         1 7PP      -0.095800
     14 C16          6.6210    -3.4680    -4.0230 ca         1 7PP       0.135100
     15 O2           6.5530    -4.2320    -5.1440 os         1 7PP      -0.370900
     16 C17          7.6650    -4.1750    -6.0380 c3         1 7PP       0.136700
     17 C14          7.1750    -3.9720    -2.8490 ca         1 7PP      -0.181600
     18 C15          7.7110    -5.3800    -2.7990 c3         1 7PP      -0.055800
     19 C13          7.2290    -3.1640    -1.7320 ca         1 7PP       0.421200
     20 N2           6.7670    -1.9270    -1.7690 nb         1 7PP      -0.655000
     21 C10          3.2490     0.0010    -3.3190 cc         1 7PP      -0.111100
     22 C3           2.0830    -0.0030    -2.6240 cd         1 7PP       0.075100
     23 C4           0.7590    -0.0080    -3.1710 ch         1 7PP      -0.165300
     24 C5          -0.3340    -0.0090    -3.6000 c1         1 7PP      -0.099100
     25 C6          -1.6050     0.2370    -4.4280 c3         1 7PP      -0.119300
     26 C7          -1.0620    -0.3210    -6.2020 c3         1 7PP       0.212800
     27 C9          -0.7290    -1.7690    -6.1730 c3         1 7PP      -0.111600
     28 C8          -2.5790     0.1160    -6.9140 c3         1 7PP      -0.111600
     29 O1          -0.3500     0.8250    -6.4680 oh         1 7PP      -0.729800
     30 HN4          3.7550    -0.2900     3.0700 hn         1 7PP       0.419800
     31 HN4A         5.0370     0.6540     2.7720 hn         1 7PP       0.419800
     32 H11          5.9000     0.0900    -1.7810 h1         1 7PP       0.240700
     33 H11A         5.0700    -0.6700    -3.4030 h1         1 7PP       0.240700
     34 H19          4.8100    -0.7800    -5.4410 hc         1 7PP       0.052367
     35 H19A         4.9220    -2.2200    -5.8770 hc         1 7PP       0.052367
     36 H19B         6.3180    -1.4140    -5.9940 hc         1 7PP       0.052367
     37 H17          7.7880    -5.2170    -6.3060 h1         1 7PP       0.047700
     38 H17A         8.4360    -3.7450    -5.4110 h1         1 7PP       0.047700
     39 H17B         7.3370    -3.6320    -6.9160 h1         1 7PP       0.047700
     40 H15          8.1480    -5.7260    -1.8710 hc         1 7PP       0.049367
     41 H15A         8.4190    -5.4190    -3.6190 hc         1 7PP       0.049367
     42 H15B         7.1050    -6.1650    -3.2350 hc         1 7PP       0.049367
     43 H13          7.7620    -3.4890    -0.8460 h4         1 7PP       0.033100
     44 H10          3.6490     0.0610    -4.3240 h4         1 7PP       0.180000
     45 H6          -2.2260    -0.6400    -4.2950 hc         1 7PP       0.074200
     46 H6A         -1.9210     1.2700    -4.5030 hc         1 7PP       0.074200
     47 H9          -1.4350    -2.4350    -5.6910 hc         1 7PP       0.061867
     48 H9A         -0.5680    -1.7610    -7.2440 hc         1 7PP       0.061867
     49 H9B          0.2280    -1.5620    -5.7090 hc         1 7PP       0.061867
     50 H8          -2.7130    -0.7500    -7.5520 hc         1 7PP       0.061867
     51 H8A         -3.2870     0.3890    -6.1410 hc         1 7PP       0.061867
     52 H8B         -2.3370     0.8870    -7.6360 hc         1 7PP       0.061867
     53 HO1         -0.5070     1.7540    -6.5130 ho         1 7PP       0.512000
@<TRIPOS>BOND
     1     2     1 1
     2     3     2 ar
     3     8     2 ar
     4     4     3 ar
     5     5     4 1
     6     6     4 ar
     7     5    30 1
     8     5    31 1
     9     6     7 ar
    10     9     7 1
    11     7     8 ar
    12     8    22 1
    13    10     9 1
    14     9    21 1
    15    10    11 1
    16    10    32 1
    17    10    33 1
    18    20    11 ar
    19    11    12 ar
    20    12    13 1
    21    12    14 ar
    22    13    34 1
    23    13    35 1
    24    13    36 1
    25    17    14 ar
    26    14    15 1
    27    15    16 1
    28    16    37 1
    29    16    38 1
    30    16    39 1
    31    19    17 ar
    32    17    18 1
    33    18    40 1
    34    18    41 1
    35    18    42 1
    36    20    19 ar
    37    19    43 1
    38    21    22 2
    39    21    44 1
    40    22    23 1
    41    23    24 3
    42    24    25 1
    43    25    26 1
    44    25    45 1
    45    25    46 1
    46    28    26 1
    47    26    29 1
    48    26    27 1
    49    27    47 1
    50    27    48 1
    51    27    49 1
    52    28    50 1
    53    28    51 1
    54    28    52 1
    55    29    53 1
@<TRIPOS>SUBSTRUCTURE
     1 7PP         1 TEMP              0 ****  ****    0 ROOT
