@<TRIPOS>MOLECULE
molecule
   57    60     1     0     0
SMALL
bcc


@<TRIPOS>ATOM
      1 C1           0.0000     0.0000     0.0000 ca         1 7PQ      -0.140500
      2 C2           1.3760     0.0000     0.0000 ca         1 7PQ      -0.086500
      3 C3           2.0740     0.0000     1.2110 ca         1 7PQ      -0.122600
      4 C4           1.3750     0.0010     2.4200 ca         1 7PQ      -0.086500
      5 C5          -0.0010     0.0020     2.4190 ca         1 7PQ      -0.140500
      6 C6          -0.6990     0.0080     1.2100 cp         1 7PQ      -0.087000
      7 C7          -2.1790     0.0080     1.2080 cp         1 7PQ       0.023000
      8 C8           3.5510    -0.0010     1.2120 c          1 7PQ       0.661700
      9 O9           4.1600    -0.0030     0.1600 o          1 7PQ      -0.584100
     10 N10          4.2250    -0.0010     2.3790 ns         1 7PQ      -0.577900
     11 C11          5.6890    -0.0020     2.3810 c3         1 7PQ       0.107000
     12 C12          6.1990    -0.0020     3.8240 c3         1 7PQ       0.145800
     13 N13          7.6670    -0.0030     3.8240 n3         1 7PQ      -0.721600
     14 C14          8.1930    -0.2400     5.1770 c3         1 7PQ       0.120300
     15 C15          9.7220    -0.2930     5.1220 c3         1 7PQ       0.140900
     16 O16         10.2160     0.9230     4.5550 os         1 7PQ      -0.419600
     17 C17          9.7250     1.1860     3.2370 c3         1 7PQ       0.140900
     18 C18          8.1960     1.2540     3.2740 c3         1 7PQ       0.120300
     19 C19         -2.8950    -1.0990     0.6920 ca         1 7PQ      -0.035000
     20 C20         -4.3100    -1.0750     0.7030 ca         1 7PQ      -0.013000
     21 C21         -4.9790     0.0460     1.2240 ca         1 7PQ      -0.081000
     22 C22         -4.2690     1.0990     1.7150 ca         1 7PQ      -0.129000
     23 C23         -2.8780     1.0890     1.7170 ca         1 7PQ      -0.190300
     24 C24         -2.2290    -2.2170     0.1710 ca         1 7PQ      -0.114000
     25 C25         -2.9500    -3.2650    -0.3180 ca         1 7PQ      -0.101000
     26 C26         -4.3420    -3.2420    -0.3080 ca         1 7PQ      -0.090000
     27 C27         -5.0220    -2.1730     0.1910 ca         1 7PQ      -0.119000
     28 C28         -2.1250     2.2690     2.2730 c3         1 7PQ       0.158100
     29 N29         -1.6710     3.1250     1.1690 nz         1 7PQ      -0.809600
     30 H1          -0.5410     0.0020    -0.9380 ha         1 7PQ       0.147000
     31 H2           1.9180    -0.0030    -0.9380 ha         1 7PQ       0.161000
     32 H3           1.9160    -0.0010     3.3590 ha         1 7PQ       0.161000
     33 H4          -0.5440     0.0050     3.3570 ha         1 7PQ       0.147000
     34 H5           3.7240    -0.0110     3.2460 hn         1 7PQ       0.310500
     35 H6           6.0500    -0.8880     1.8710 h1         1 7PQ       0.069200
     36 H7           6.0510     0.8810     1.8690 h1         1 7PQ       0.069200
     37 H8           5.8370    -0.8850     4.3350 h1         1 7PQ       0.036200
     38 H9           5.8380     0.8840     4.3340 h1         1 7PQ       0.036200
     39 H11          7.8830     0.5660     5.8310 h1         1 7PQ       0.043700
     40 H12          7.8120    -1.1830     5.5510 h1         1 7PQ       0.043700
     41 H13         10.0320    -1.1290     4.5070 h1         1 7PQ       0.058950
     42 H14         10.1150    -0.4090     6.1250 h1         1 7PQ       0.058950
     43 H15         10.1200     2.1320     2.8870 h1         1 7PQ       0.058950
     44 H16         10.0350     0.3900     2.5710 h1         1 7PQ       0.058950
     45 H17          7.8170     1.3950     2.2690 h1         1 7PQ       0.043700
     46 H18          7.8870     2.0810     3.9020 h1         1 7PQ       0.043700
     47 H19         -6.0620     0.0750     1.2310 ha         1 7PQ       0.157000
     48 H20         -4.7950     1.9560     2.1180 ha         1 7PQ       0.136000
     49 H21         -1.1460    -2.2480     0.1570 ha         1 7PQ       0.151000
     50 H22         -2.4330    -4.1280    -0.7200 ha         1 7PQ       0.151000
     51 H23         -4.8930    -4.0880    -0.7020 ha         1 7PQ       0.152000
     52 H24         -6.1050    -2.1690     0.1920 ha         1 7PQ       0.152000
     53 H25         -2.7750     2.8370     2.9270 hx         1 7PQ       0.110200
     54 H26         -1.2670     1.9180     2.8340 hx         1 7PQ       0.110200
     55 H27         -0.6720     3.1920     1.1870 hn         1 7PQ       0.453800
     56 H28         -1.9630     2.7290     0.2980 hn         1 7PQ       0.453800
     57 H293        -2.0680     4.0380     1.2700 hn         1 7PQ       0.453800
@<TRIPOS>BOND
     1    16    17 1   
     2    16    15 1   
     3    25    26 ar  
     4    25    24 ar  
     5    18    17 1   
     6    18    13 1   
     7    26    27 ar  
     8    14    15 1   
     9    14    13 1   
    10    24    19 ar  
    11    12    13 1   
    12    12    11 1   
    13    27    20 ar  
    14     4     5 ar  
    15     4     3 ar  
    16     5     6 ar  
    17    10    11 1   
    18    10     8 1   
    19    19    20 ar  
    20    19     7 ar  
    21    20    21 ar  
    22     8     3 1   
    23     8     9 2   
    24     3     2 ar  
    25     6     7 1   
    26     6     1 ar  
    27     7    23 ar  
    28    21    22 ar  
    29     2     1 ar  
    30    23    22 ar  
    31    23    28 1   
    32    28    29 1   
    33     1    30 1   
    34     2    31 1   
    35     4    32 1   
    36     5    33 1   
    37    10    34 1   
    38    11    35 1   
    39    11    36 1   
    40    12    37 1   
    41    12    38 1   
    42    14    39 1   
    43    14    40 1   
    44    15    41 1   
    45    15    42 1   
    46    17    43 1   
    47    17    44 1   
    48    18    45 1   
    49    18    46 1   
    50    21    47 1   
    51    22    48 1   
    52    24    49 1   
    53    25    50 1   
    54    26    51 1   
    55    27    52 1   
    56    28    53 1   
    57    28    54 1   
    58    29    55 1   
    59    29    56 1   
    60    57    29 1   
@<TRIPOS>SUBSTRUCTURE
     1 7PQ         1 TEMP              0 ****  ****    0 ROOT
