@<TRIPOS>MOLECULE
7PQ
   57    60     1     0     0
SMALL
bcc


@<TRIPOS>ATOM
      1 C1           0.0000     0.0000     0.0000 ca         1 7PQ      -0.115500
      2 C2           1.3760     0.0000     0.0000 ca         1 7PQ      -0.056000
      3 C3           2.0740     0.0000     1.2110 ca         1 7PQ      -0.126600
      4 C4           1.3750     0.0010     2.4200 ca         1 7PQ      -0.056000
      5 C5          -0.0010     0.0020     2.4190 ca         1 7PQ      -0.115500
      6 C6          -0.6990     0.0080     1.2100 cp         1 7PQ      -0.093000
      7 C7          -2.1790     0.0080     1.2080 cp         1 7PQ       0.037000
      8 C8           3.5510    -0.0010     1.2120 c          1 7PQ       0.576700
      9 O9           4.1600    -0.0030     0.1600 o          1 7PQ      -0.625100
     10 N10          4.2250    -0.0010     2.3790 ns         1 7PQ      -0.182900
     11 C11          5.6890    -0.0020     2.3810 c3         1 7PQ       0.036000
     12 C12          6.1990    -0.0020     3.8240 c3         1 7PQ       0.143800
     13 N13          7.6670    -0.0030     3.8240 n3         1 7PQ      -0.527600
     14 C14          8.1930    -0.2400     5.1770 c3         1 7PQ       0.106300
     15 C15          9.7220    -0.2930     5.1220 c3         1 7PQ       0.216400
     16 O16         10.2160     0.9230     4.5550 os         1 7PQ      -0.406600
     17 C17          9.7250     1.1860     3.2370 c3         1 7PQ       0.216400
     18 C18          8.1960     1.2540     3.2740 c3         1 7PQ       0.106300
     19 C19         -2.8950    -1.0990     0.6920 ca         1 7PQ      -0.032000
     20 C20         -4.3100    -1.0750     0.7030 ca         1 7PQ      -0.014000
     21 C21         -4.9790     0.0460     1.2240 ca         1 7PQ      -0.043000
     22 C22         -4.2690     1.0990     1.7150 ca         1 7PQ      -0.104000
     23 C23         -2.8780     1.0890     1.7170 ca         1 7PQ      -0.202300
     24 C24         -2.2290    -2.2170     0.1710 ca         1 7PQ      -0.097000
     25 C25         -2.9500    -3.2650    -0.3180 ca         1 7PQ      -0.067000
     26 C26         -4.3420    -3.2420    -0.3080 ca         1 7PQ      -0.059000
     27 C27         -5.0220    -2.1730     0.1910 ca         1 7PQ      -0.088000
     28 C28         -2.1250     2.2690     2.2730 c3         1 7PQ       0.020100
     29 N29         -1.6710     3.1250     1.1690 nz         1 7PQ       0.067400
     30 H1          -0.5410     0.0020    -0.9380 ha         1 7PQ       0.120500
     31 H2           1.9180    -0.0030    -0.9380 ha         1 7PQ       0.131500
     32 H3           1.9160    -0.0010     3.3590 ha         1 7PQ       0.131500
     33 H4          -0.5440     0.0050     3.3570 ha         1 7PQ       0.120500
     34 H5           3.7240    -0.0110     3.2460 hn         1 7PQ       0.173500
     35 H6           6.0500    -0.8880     1.8710 h1         1 7PQ       0.042700
     36 H7           6.0510     0.8810     1.8690 h1         1 7PQ       0.042700
     37 H8           5.8370    -0.8850     4.3350 h1         1 7PQ       0.009200
     38 H9           5.8380     0.8840     4.3340 h1         1 7PQ       0.009200
     39 H11          7.8830     0.5660     5.8310 h1         1 7PQ       0.018200
     40 H12          7.8120    -1.1830     5.5510 h1         1 7PQ       0.018200
     41 H13         10.0320    -1.1290     4.5070 h1         1 7PQ       0.017200
     42 H14         10.1150    -0.4090     6.1250 h1         1 7PQ       0.017200
     43 H15         10.1200     2.1320     2.8870 h1         1 7PQ       0.017200
     44 H16         10.0350     0.3900     2.5710 h1         1 7PQ       0.017200
     45 H17          7.8170     1.3950     2.2690 h1         1 7PQ       0.018200
     46 H18          7.8870     2.0810     3.9020 h1         1 7PQ       0.018200
     47 H19         -6.0620     0.0750     1.2310 ha         1 7PQ       0.124000
     48 H20         -4.7950     1.9560     2.1180 ha         1 7PQ       0.109000
     49 H21         -1.1460    -2.2480     0.1570 ha         1 7PQ       0.125000
     50 H22         -2.4330    -4.1280    -0.7200 ha         1 7PQ       0.118000
     51 H23         -4.8930    -4.0880    -0.7020 ha         1 7PQ       0.118000
     52 H24         -6.1050    -2.1690     0.1920 ha         1 7PQ       0.121000
     53 H25         -2.7750     2.8370     2.9270 hx         1 7PQ       0.086700
     54 H26         -1.2670     1.9180     2.8340 hx         1 7PQ       0.086700
     55 H27         -0.6720     3.1920     1.1870 hn         1 7PQ       0.224133
     56 H28         -1.9630     2.7290     0.2980 hn         1 7PQ       0.224133
     57 H293        -2.0680     4.0380     1.2700 hn         1 7PQ       0.224133
@<TRIPOS>BOND
     1     1     2 ar  
     2     1     6 ar  
     3     1    30 1   
     4     2     3 ar  
     5     2    31 1   
     6     3     4 ar  
     7     3     8 1   
     8     4     5 ar  
     9     4    32 1   
    10     5     6 ar  
    11     5    33 1   
    12     6     7 1   
    13     7    19 ar  
    14     7    23 ar  
    15     8     9 2   
    16     8    10 1   
    17    10    11 1   
    18    10    34 1   
    19    11    12 1   
    20    11    35 1   
    21    11    36 1   
    22    12    13 1   
    23    12    37 1   
    24    12    38 1   
    25    13    14 1   
    26    13    18 1   
    27    14    15 1   
    28    14    39 1   
    29    14    40 1   
    30    15    16 1   
    31    15    41 1   
    32    15    42 1   
    33    16    17 1   
    34    17    18 1   
    35    17    43 1   
    36    17    44 1   
    37    18    45 1   
    38    18    46 1   
    39    19    20 ar  
    40    19    24 ar  
    41    20    21 ar  
    42    20    27 ar  
    43    21    22 ar  
    44    21    47 1   
    45    22    23 ar  
    46    22    48 1   
    47    23    28 1   
    48    24    25 ar  
    49    24    49 1   
    50    25    26 ar  
    51    25    50 1   
    52    26    27 ar  
    53    26    51 1   
    54    27    52 1   
    55    28    29 1   
    56    28    53 1   
    57    28    54 1   
    58    29    55 1   
    59    29    56 1   
    60    29    57 1   
@<TRIPOS>SUBSTRUCTURE
     1 7PQ         1 TEMP              0 ****  ****    0 ROOT
