@<TRIPOS>MOLECULE
7PS
   28    30     1     0     0
SMALL
bcc


@<TRIPOS>ATOM
      1 C1           0.0000     0.0000     0.0000 c2         1 7PS      -0.113000
      2 C2           1.3980     0.0000     0.0000 c2         1 7PS      -0.319000
      3 C3          -0.6770     0.0010     1.2400 c2         1 7PS       0.272000
      4 C4           1.4210     0.0010     2.3100 c2         1 7PS      -0.418000
      5 C5           0.6430    -0.0030    -2.0790 c2         1 7PS      -0.300000
      6 C6          -1.4780    -0.0060    -5.5880 c2         1 7PS       0.221000
      7 C7          -3.0300    -0.0070    -7.4660 c3         1 7PS      -0.071000
      8 C8          -1.1920    -0.0050    -4.1090 c3         1 7PS      -0.193000
      9 N9           2.0610     0.0000     1.1620 n2         1 7PS       0.145000
     10 N10          1.7820    -0.0010    -1.3180 na         1 7PS       0.455000
     11 N11          0.0590     0.0020     2.3740 ns         1 7PS       0.122000
     12 N12         -0.4080    -0.0070    -1.2960 n2         1 7PS      -0.019000
     13 N13          2.1440     0.0010     3.4770 nz         1 7PS       0.466000
     14 N14         -2.7520    -0.0060    -6.0280 ns         1 7PS       0.021000
     15 O15         -0.5620    -0.0060    -6.3830 o          1 7PS      -0.382000
     16 O16         -1.8960     0.0010     1.2880 o          1 7PS      -0.300000
     17 S17          0.5980    -0.0040    -3.8400 ss         1 7PS       0.256000
     18 H1          -2.5950    -0.8910    -7.9170 h1         1 7PS       0.057333
     19 H2          -4.1010    -0.0100    -7.6270 h1         1 7PS       0.057333
     20 H3          -2.5980     0.8780    -7.9180 h1         1 7PS       0.057333
     21 H4          -1.6250     0.8800    -3.6580 h1         1 7PS       0.105500
     22 H5          -1.6250    -0.8890    -3.6560 h1         1 7PS       0.105500
     23 H6           2.7220     0.0020    -1.6610 hn         1 7PS       0.102000
     24 H7          -0.3980     0.0040     3.2640 hn         1 7PS       0.097000
     25 H9           1.9200     0.8190     4.0080 hn         1 7PS       0.118000
     26 H10          1.9170    -0.8150     4.0100 DU         1 7PS       0.185000
     27 H11         -3.5070     0.0220    -5.3720 hn         1 7PS       0.086000
     28 H133         2.2700    -0.9410     3.7910 DU         1 7PS       0.185000
@<TRIPOS>BOND
     1     1     2 1   
     2     1     3 1   
     3     1    12 1   
     4     2     9 1   
     5     2    10 1   
     6     3    11 1   
     7     3    16 1   
     8     4     9 1   
     9     4    11 1   
    10     4    13 1   
    11     5    10 1   
    12     5    12 1   
    13     5    17 1   
    14     6     8 1   
    15     6    14 1   
    16     6    15 1   
    17     7    14 1   
    18     7    18 1   
    19     7    19 1   
    20     7    20 1   
    21     8    17 1   
    22     8    21 1   
    23     8    22 1   
    24    10    23 1   
    25    11    24 1   
    26    13    25 1   
    27    13    26 1   
    28    13    28 1   
    29    14    27 1   
    30    26    28 1   
@<TRIPOS>SUBSTRUCTURE
     1 7PS         1 TEMP              0 ****  ****    0 ROOT
