@<TRIPOS>MOLECULE
molecule
   28    29     1     0     0
SMALL
bcc


@<TRIPOS>ATOM
      1 C1           0.0000     0.0000     0.0000 cc         1 7PS       0.339800
      2 C2           1.3980     0.0000     0.0000 cd         1 7PS       0.006800
      3 C3          -0.6770     0.0010     1.2400 c          1 7PS       0.621000
      4 C4           1.4210     0.0010     2.3100 cc         1 7PS       0.420800
      5 C5           0.6430    -0.0030    -2.0790 cd         1 7PS       0.578800
      6 C6          -1.4780    -0.0060    -5.5880 c          1 7PS       0.670100
      7 C7          -3.0300    -0.0070    -7.4660 c3         1 7PS       0.102300
      8 C8          -1.1920    -0.0050    -4.1090 c3         1 7PS      -0.110300
      9 N9           2.0610     0.0000     1.1620 nd         1 7PS      -0.479100
     10 N10          1.7820    -0.0010    -1.3180 na         1 7PS      -0.255900
     11 N11          0.0590     0.0020     2.3740 ns         1 7PS      -0.495400
     12 N12         -0.4080    -0.0070    -1.2960 nc         1 7PS      -0.650000
     13 N13          2.1440     0.0010     3.4770 nz         1 7PS      -0.908600
     14 N14         -2.7520    -0.0060    -6.0280 ns         1 7PS      -0.571900
     15 O15         -0.5620    -0.0060    -6.3830 o          1 7PS      -0.591100
     16 O16         -1.8960     0.0010     1.2880 o          1 7PS      -0.537500
     17 S17          0.5980    -0.0040    -3.8400 ss         1 7PS      -0.101400
     18 H1          -2.5950    -0.8910    -7.9170 h1         1 7PS       0.052367
     19 H2          -4.1010    -0.0100    -7.6270 h1         1 7PS       0.052367
     20 H3          -2.5980     0.8780    -7.9180 h1         1 7PS       0.052367
     21 H4          -1.6250     0.8800    -3.6580 h1         1 7PS       0.103700
     22 H5          -1.6250    -0.8890    -3.6560 h1         1 7PS       0.103700
     23 H6           2.7220     0.0020    -1.6610 hn         1 7PS       0.341700
     24 H7          -0.3980     0.0040     3.2640 hn         1 7PS       0.340500
     25 H9           1.9200     0.8190     4.0080 hn         1 7PS       0.531467
     26 H10          1.9170    -0.8150     4.0100 hn         1 7PS       0.531467
     27 H11         -3.5070     0.0220    -5.3720 hn         1 7PS       0.320500
     28 H133         2.2700    -0.9410     3.7910 hn         1 7PS       0.531467
@<TRIPOS>BOND
     1     7    14 1   
     2    14     6 1   
     3    16     3 2   
     4     6    15 2   
     5     6     8 1   
     6     8    17 1   
     7     3    11 1   
     8     3     1 1   
     9    12     1 1   
    10    12     5 2   
    11    11     4 1   
    12     1     2 2   
    13     5    17 1   
    14     5    10 1   
    15     4    13 1   
    16     4     9 2   
    17     2    10 1   
    18     2     9 1   
    19     7    18 1   
    20     7    19 1   
    21     7    20 1   
    22     8    21 1   
    23     8    22 1   
    24    10    23 1   
    25    11    24 1   
    26    13    25 1   
    27    13    26 1   
    28    14    27 1   
    29    28    13 1   
@<TRIPOS>SUBSTRUCTURE
     1 7PS         1 TEMP              0 ****  ****    0 ROOT
