@<TRIPOS>MOLECULE
molecule
   35    38     1     0     0
SMALL
bcc


@<TRIPOS>ATOM
      1 C1           0.0000     0.0000     0.0000 c3         1 7PT      -0.027500
      2 O1           1.7080     2.2080     3.1050 op         1 7PT      -0.361600
      3 C2           1.5120     0.0000     0.0000 c2         1 7PT      -0.133400
      4 C3           1.9810     0.0000     1.2220 c2         1 7PT      -0.154200
      5 C4           0.8670    -0.0050     2.2250 c3         1 7PT      -0.018800
      6 C5           0.4760    -1.4220     2.6280 c3         1 7PT      -0.053500
      7 C15          2.3660    -0.0010    -1.2410 c3         1 7PT      -0.037900
      8 C14         -0.5340    -1.4050    -0.2840 c3         1 7PT      -0.085100
      9 C7          -1.5090    -0.4190     1.9520 c2         1 7PT      -0.206200
     10 C12          1.0790    -1.8780     3.9380 c3         1 7PT       0.149400
     11 C10          0.3090     2.2640     3.3900 cx         1 7PT       0.059400
     12 C11          1.3910     0.3220     4.7240 c          1 7PT       0.758600
     13 C6          -1.0280    -1.4570     2.6330 ce         1 7PT      -0.112400
     14 C8          -0.3940     0.4480     1.4240 c3         1 7PT      -0.050500
     15 C9           1.0920     0.9460     3.3810 cx         1 7PT      -0.028200
     16 O4          -3.0580    -2.4240     3.2370 o          1 7PT      -0.829800
     17 O2           2.0830     0.8880     5.5370 o          1 7PT      -0.583500
     18 O5          -1.2500    -3.4970     3.9540 o          1 7PT      -0.829800
     19 O3           0.8570    -0.8910     4.9830 os         1 7PT      -0.399900
     20 H1          -0.3740     0.7060    -0.7310 hc         1 7PT       0.039700
     21 H3           2.9130    -0.5050     1.4450 ha         1 7PT       0.133000
     22 H5           0.8220    -2.0960     1.8530 hc         1 7PT       0.071700
     23 H6           3.2310     0.6330    -1.0850 hc         1 7PT       0.036367
     24 H7           1.7890     0.3760    -2.0770 hc         1 7PT       0.036367
     25 H8           2.6930    -1.0110    -1.4540 hc         1 7PT       0.036367
     26 H9          -0.5420    -1.5790    -1.3530 hc         1 7PT       0.044700
     27 H10          0.1020    -2.1380     0.1970 hc         1 7PT       0.044700
     28 H11         -1.5430    -1.4930     0.1030 hc         1 7PT       0.044700
     29 H12         -2.4520     0.0280     2.2420 ha         1 7PT       0.152000
     30 H14          0.6210    -2.8150     4.2330 h1         1 7PT       0.087200
     31 H15          2.1450    -2.0220     3.8070 h1         1 7PT       0.087200
     32 H16         -0.3370     2.4340     2.5380 h1         1 7PT       0.089200
     33 H17          0.0450     2.6470     4.3680 h1         1 7PT       0.089200
     34 H19         -0.5920     1.5100     1.5050 hc         1 7PT       0.059700
     35 C13         -1.8450    -2.4850     3.2910 c          1 7PT       0.892800
@<TRIPOS>BOND
     1     7     3 1   
     2     3     4 2   
     3     3     1 1   
     4     8     1 1   
     5     4     5 1   
     6     1    14 1   
     7     6    10 1   
     8     6     5 1   
     9     6    13 1   
    10    19    10 1   
    11    19    12 1   
    12     5    14 1   
    13     5    15 1   
    14    16    35 1   
    15    12    17 2   
    16    12    15 1   
    17    14     9 1   
    18    13    35 1   
    19    13     9 2   
    20    35    18 1   
    21    15     2 1   
    22    15    11 1   
    23     2    11 1   
    24     1    20 1   
    25     4    21 1   
    26     6    22 1   
    27     7    23 1   
    28     7    24 1   
    29     7    25 1   
    30     8    26 1   
    31     8    27 1   
    32     8    28 1   
    33     9    29 1   
    34    10    30 1   
    35    10    31 1   
    36    11    32 1   
    37    11    33 1   
    38    14    34 1   
@<TRIPOS>SUBSTRUCTURE
     1 7PT         1 TEMP              0 ****  ****    0 ROOT
