@<TRIPOS>MOLECULE
7PV
   40    42     1     0     0
SMALL
bcc


@<TRIPOS>ATOM
      1 C10          0.0000     0.0000     0.0000 ca         1 7PV       0.002700
      2 C13          1.3830     0.0010     2.3940 ca         1 7PV      -0.228500
      3 C21         -1.9020    -5.3290    -3.2930 cc         1 7PV       0.292800
      4 C22         -1.6590    -6.6570    -2.8740 c          1 7PV       0.521000
      5 C02         -2.7760    -7.4040    -4.8070 cc         1 7PV      -0.010200
      6 N03         -3.0070    -6.1730    -5.2090 nd         1 7PV      -0.343100
      7 C04         -2.5930    -5.1230    -4.4920 cd         1 7PV      -0.243200
      8 N05         -2.6860    -3.7630    -4.6510 na         1 7PV       0.347100
      9 C06         -2.0660    -3.1790    -3.5780 cd         1 7PV       0.378800
     10 S07         -1.9130    -1.4430    -3.3140 ss         1 7PV      -0.322400
     11 C08         -1.0080    -1.4430    -1.7460 c3         1 7PV       0.097700
     12 C09         -0.7530    -0.0000    -1.3050 c3         1 7PV       0.029900
     13 C11          1.3820     0.0000     0.0000 ca         1 7PV      -0.102000
     14 C12          2.0740     0.0000     1.1970 ca         1 7PV       0.021000
     15 S14          2.2640     0.0010     3.9200 sy         1 7PV       0.939200
     16 N15          2.5090     1.5820     4.3440 nz         1 7PV      -0.129500
     17 O16          1.3830    -0.5440     4.8930 o          1 7PV      -0.491800
     18 O17          3.5480    -0.5440     3.6430 o          1 7PV      -0.491800
     19 C18          0.0010     0.0070     2.3940 ca         1 7PV       0.021000
     20 C19         -0.6910     0.0060     1.1970 ca         1 7PV      -0.102000
     21 N20         -1.6000    -4.1080    -2.7820 nc         1 7PV      -0.537000
     22 N24         -2.1070    -7.6690    -3.6500 ns         1 7PV       0.007600
     23 H1          -3.8580    -9.0080    -5.0460 hn         1 7PV       0.220800
     24 H2          -2.4400    -9.0120    -5.8580 hn         1 7PV       0.220800
     25 H3          -3.2180    -3.2870    -5.3530 hn         1 7PV       0.152700
     26 H4          -0.0620    -1.9540    -1.8750 h1         1 7PV       0.059700
     27 H5          -1.5940    -1.9530    -0.9910 h1         1 7PV       0.059700
     28 H6          -0.1670     0.5100    -2.0600 hc         1 7PV       0.045700
     29 H7          -1.6990     0.5110    -1.1760 hc         1 7PV       0.045700
     30 H8           1.9240    -0.0010    -0.9380 ha         1 7PV       0.134000
     31 H9           3.1570    -0.0000     1.1970 ha         1 7PV       0.130000
     32 H10          3.0120     1.6220     5.2090 hn         1 7PV       0.315133
     33 H11          3.0390     2.0410     3.6290 hn         1 7PV       0.315133
     34 H12         -0.5410     0.0100     3.3320 ha         1 7PV       0.130000
     35 H13         -1.7740     0.0110     1.1970 ha         1 7PV       0.134000
     36 H15         -1.9470    -8.6170    -3.3730 hn         1 7PV       0.193500
     37 N01         -3.2190    -8.4510    -5.5770 nz         1 7PV       0.220400
     38 H153         1.6260     2.0400     4.4500 hn         1 7PV       0.315133
     39 H013        -3.6260    -8.0960    -6.4200 hn         1 7PV       0.220800
     40 O23         -1.0600    -6.8830    -1.8360 o          1 7PV      -0.570500
@<TRIPOS>BOND
     1     1    12 1   
     2     1    13 ar  
     3     1    20 ar  
     4     2    14 ar  
     5     2    15 1   
     6     2    19 ar  
     7     3     4 1   
     8     3     7 2   
     9     3    21 1   
    10     4    22 1   
    11     4    40 2   
    12     5     6 2   
    13     5    22 1   
    14     5    37 1   
    15     6     7 1   
    16     7     8 1   
    17     8     9 1   
    18     8    25 1   
    19     9    10 1   
    20     9    21 2   
    21    10    11 1   
    22    11    12 1   
    23    11    26 1   
    24    11    27 1   
    25    12    28 1   
    26    12    29 1   
    27    13    14 ar  
    28    13    30 1   
    29    14    31 1   
    30    15    16 1   
    31    15    17 2   
    32    15    18 2   
    33    16    32 1   
    34    16    33 1   
    35    16    38 1   
    36    19    20 ar  
    37    19    34 1   
    38    20    35 1   
    39    22    36 1   
    40    23    37 1   
    41    24    37 1   
    42    37    39 1   
@<TRIPOS>SUBSTRUCTURE
     1 7PV         1 TEMP              0 ****  ****    0 ROOT
