@<TRIPOS>MOLECULE
7PY
   47    50     1     0     0
SMALL
bcc


@<TRIPOS>ATOM
      1 CAX          0.0000     0.0000     0.0000 c3         1 7PY       0.209700
      2 OAW          1.4290     0.0000     0.0000 os         1 7PY      -0.267900
      3 CAS          1.8230     0.0000     1.3010 ca         1 7PY       0.164100
      4 CAR          0.8740     0.0000     2.3120 ca         1 7PY      -0.275000
      5 CAT          3.1750    -0.0050     1.6180 ca         1 7PY       0.008100
      6 OAY          4.1080    -0.0050     0.6260 os         1 7PY      -0.287900
      7 CAZ          4.3960    -1.3730     0.3290 c3         1 7PY       0.230700
      8 CAU          3.5760    -0.0010     2.9500 ca         1 7PY       0.164100
      9 OBA          4.9010    -0.0020     3.2610 os         1 7PY      -0.267900
     10 CBB          4.9890    -0.0030     4.6880 c3         1 7PY       0.209700
     11 CAV          2.6270    -0.0010     3.9590 ca         1 7PY      -0.275000
     12 CAF          1.2750    -0.0000     3.6410 ca         1 7PY       0.082600
     13 NAE          0.3160    -0.0000     4.6620 nu         1 7PY      -0.292300
     14 CAD          0.5700    -0.6670     5.8500 ca         1 7PY       0.708900
     15 NAG         -0.3000    -0.5540     6.8420 nb         1 7PY      -0.666000
     16 CAH         -0.0920    -1.1820     7.9930 ca         1 7PY       0.326800
     17 NAC          1.6780    -1.3890     5.9550 nb         1 7PY      -0.698000
     18 CAB          1.9650    -2.0420     7.0680 ca         1 7PY       0.536200
     19 CAA          1.0770    -1.9590     8.1380 ca         1 7PY      -0.406400
     20 CAL          1.0320    -2.5140     9.4930 cc         1 7PY      -0.103200
     21 CAK         -0.0990    -2.0680    10.0600 cd         1 7PY      -0.279100
     22 NAI         -0.7830    -1.2690     9.1750 na         1 7PY       0.311100
     23 CAJ         -2.0000    -0.6370     9.4390 ca         1 7PY       0.302800
     24 CAM         -2.9840    -1.3120    10.1530 ca         1 7PY      -0.224300
     25 CAN         -4.1850    -0.6740    10.4090 ca         1 7PY      -0.053000
     26 CAO         -4.3620     0.6200     9.9400 ca         1 7PY      -0.222300
     27 CAP         -3.3410     1.2290     9.2380 ca         1 7PY       0.420200
     28 NAQ         -2.2040     0.5980     9.0130 nb         1 7PY      -0.551000
     29 HAX1        -0.3610    -0.0010    -1.0210 h1         1 7PY       0.003867
     30 HAX2        -0.3610    -0.8840     0.5120 h1         1 7PY       0.003867
     31 HAX3        -0.3610     0.8850     0.5100 h1         1 7PY       0.003867
     32 HAR         -0.1810     0.0010     2.0650 ha         1 7PY       0.154000
     33 HAZ1         4.9870    -1.4290    -0.5770 h1         1 7PY      -0.007633
     34 HAZ2         3.4680    -1.9150     0.1900 h1         1 7PY      -0.007633
     35 HAZ3         4.9500    -1.8120     1.1500 h1         1 7PY      -0.007633
     36 HBB1         6.0310     0.0060     4.9850 h1         1 7PY       0.003867
     37 HBB2         4.4940     0.8770     5.0810 h1         1 7PY       0.003867
     38 HBB3         4.5100    -0.8920     5.0790 h1         1 7PY       0.003867
     39 HAV          2.9390     0.0010     4.9970 ha         1 7PY       0.154000
     40 HAE         -0.5370     0.5110     4.5470 hn         1 7PY       0.294800
     41 HAB          2.8720    -2.6300     7.1460 h4         1 7PY      -0.019900
     42 HAL          1.7700    -3.1620     9.9490 ha         1 7PY       0.130000
     43 HAK         -0.4230    -2.3000    11.0670 h4         1 7PY       0.148000
     44 HAM         -2.8120    -2.3220    10.5050 ha         1 7PY       0.123000
     45 HAN         -4.9700    -1.1750    10.9630 ha         1 7PY       0.112000
     46 HAO         -5.2910     1.1460    10.1220 ha         1 7PY       0.117000
     47 HAP         -3.4730     2.2400     8.8720 h4         1 7PY      -0.015900
@<TRIPOS>BOND
     1     1     2 1   
     2     1    29 1   
     3     1    30 1   
     4     1    31 1   
     5     2     3 1   
     6     3     4 ar  
     7     3     5 ar  
     8     4    12 ar  
     9     4    32 1   
    10     5     6 1   
    11     5     8 ar  
    12     6     7 1   
    13     7    33 1   
    14     7    34 1   
    15     7    35 1   
    16     8     9 1   
    17     8    11 ar  
    18     9    10 1   
    19    10    36 1   
    20    10    37 1   
    21    10    38 1   
    22    11    12 ar  
    23    11    39 1   
    24    12    13 1   
    25    13    14 1   
    26    13    40 1   
    27    14    15 ar  
    28    14    17 ar  
    29    15    16 ar  
    30    16    19 ar  
    31    16    22 1   
    32    17    18 ar  
    33    18    19 ar  
    34    18    41 1   
    35    19    20 1   
    36    20    21 2   
    37    20    42 1   
    38    21    22 1   
    39    21    43 1   
    40    22    23 1   
    41    23    24 ar  
    42    23    28 ar  
    43    24    25 ar  
    44    24    44 1   
    45    25    26 ar  
    46    25    45 1   
    47    26    27 ar  
    48    26    46 1   
    49    27    28 ar  
    50    27    47 1   
@<TRIPOS>SUBSTRUCTURE
     1 7PY         1 TEMP              0 ****  ****    0 ROOT
