@<TRIPOS>MOLECULE
molecule
   20    21     1     0     0
SMALL
bcc


@<TRIPOS>ATOM
      1 C01          0.0000     0.0000     0.0000 ca         1 7Q1      -0.110000
      2 C02          1.3820     0.0000     0.0000 ca         1 7Q1      -0.125500
      3 C03          2.0730     0.0000     1.1980 ca         1 7Q1      -0.098000
      4 C04          1.3830     0.0020     2.3940 ca         1 7Q1      -0.109300
      5 C05         -0.0000     0.0030     2.3950 ca         1 7Q1      -0.098000
      6 C06         -0.6910     0.0010     1.1980 ca         1 7Q1      -0.125500
      7 C07          2.1360     0.0010     3.6990 c3         1 7Q1       0.096400
      8 C08          2.2040    -1.3990     4.2750 c          1 7Q1       0.680500
      9 O09          2.7230    -2.3730     3.7730 o          1 7Q1      -0.552500
     10 N10          1.5670    -1.3350     5.4610 ns         1 7Q1      -0.605500
     11 C11          1.1140    -0.0990     5.7040 c          1 7Q1       0.824600
     12 O12          0.5070     0.2130     6.7090 o          1 7Q1      -0.586500
     13 O13          1.4070     0.7580     4.7120 os         1 7Q1      -0.359900
     14 H1          -0.5420    -0.0010    -0.9380 ha         1 7Q1       0.135000
     15 H2           1.9240    -0.0010    -0.9380 ha         1 7Q1       0.137000
     16 H3           3.1570    -0.0000     1.1980 ha         1 7Q1       0.137500
     17 H4          -0.5420     0.0040     3.3330 ha         1 7Q1       0.137500
     18 H5          -1.7740     0.0020     1.1980 ha         1 7Q1       0.137000
     19 H6           3.1330     0.4050     3.5710 h1         1 7Q1       0.113700
     20 H7           1.4470    -2.1110     6.0800 hn         1 7Q1       0.371500
@<TRIPOS>BOND
     1     9     8 2
     2     2     1 ar
     3     2     3 ar
     4     1     6 ar
     5     3     4 ar
     6     6     5 ar
     7     8    10 1
     8     8     7 1
     9     4     5 ar
    10     4     7 1
    11    10    11 1
    12     7    13 1
    13    11    13 1
    14    11    12 2
    15     1    14 1
    16     2    15 1
    17     3    16 1
    18     5    17 1
    19     6    18 1
    20     7    19 1
    21    10    20 1
@<TRIPOS>SUBSTRUCTURE
     1 7Q1         1 TEMP              0 ****  ****    0 ROOT
