@<TRIPOS>MOLECULE
7Q1
   20    21     1     0     0
SMALL
bcc


@<TRIPOS>ATOM
      1 C01          0.0000     0.0000     0.0000 ca         1 7Q1      -0.084000
      2 C02          1.3820     0.0000     0.0000 ca         1 7Q1      -0.097000
      3 C03          2.0730     0.0000     1.1980 ca         1 7Q1      -0.072500
      4 C04          1.3830     0.0020     2.3940 ca         1 7Q1      -0.122300
      5 C05         -0.0000     0.0030     2.3950 ca         1 7Q1      -0.072500
      6 C06         -0.6910     0.0010     1.1980 ca         1 7Q1      -0.097000
      7 C07          2.1360     0.0010     3.6990 c3         1 7Q1       0.145400
      8 C08          2.2040    -1.3990     4.2750 c          1 7Q1       0.592500
      9 O09          2.7230    -2.3730     3.7730 o          1 7Q1      -0.590500
     10 N10          1.5670    -1.3350     5.4610 ns         1 7Q1      -0.194500
     11 C11          1.1140    -0.0990     5.7040 c          1 7Q1       0.762600
     12 O12          0.5070     0.2130     6.7090 o          1 7Q1      -0.637500
     13 O13          1.4070     0.7580     4.7120 os         1 7Q1      -0.352900
     14 H1          -0.5420    -0.0010    -0.9380 ha         1 7Q1       0.105000
     15 H2           1.9240    -0.0010    -0.9380 ha         1 7Q1       0.107000
     16 H3           3.1570    -0.0000     1.1980 ha         1 7Q1       0.109000
     17 H4          -0.5420     0.0040     3.3330 ha         1 7Q1       0.109000
     18 H5          -1.7740     0.0020     1.1980 ha         1 7Q1       0.107000
     19 H6           3.1330     0.4050     3.5710 h1         1 7Q1       0.066700
     20 H7           1.4470    -2.1110     6.0800 hn         1 7Q1       0.216500
@<TRIPOS>BOND
     1     1     2 ar  
     2     1     6 ar  
     3     1    14 1   
     4     2     3 ar  
     5     2    15 1   
     6     3     4 ar  
     7     3    16 1   
     8     4     5 ar  
     9     4     7 1   
    10     5     6 ar  
    11     5    17 1   
    12     6    18 1   
    13     7     8 1   
    14     7    13 1   
    15     7    19 1   
    16     8     9 2   
    17     8    10 1   
    18    10    11 1   
    19    10    20 1   
    20    11    12 2   
    21    11    13 1   
@<TRIPOS>SUBSTRUCTURE
     1 7Q1         1 TEMP              0 ****  ****    0 ROOT
