@<TRIPOS>MOLECULE
molecule
   50    54     1     0     0
SMALL
bcc


@<TRIPOS>ATOM
      1 CAZ          0.0000     0.0000     0.0000 c3         1 7Q7       0.123200
      2 OAY          1.4290     0.0000     0.0000 os         1 7Q7      -0.315900
      3 CAB          2.0470     0.0000     1.2120 ca         1 7Q7       0.144100
      4 CAA          1.2920    -0.0060     2.3710 ca         1 7Q7      -0.213000
      5 CAC          3.4360     0.0010     1.2840 ca         1 7Q7       0.057100
      6 OBA          4.1760     0.0020     0.1420 os         1 7Q7      -0.326900
      7 CBB          4.5280     1.2760    -0.4000 c3         1 7Q7       0.135700
      8 CAD          4.0690     0.0010     2.5220 ca         1 7Q7       0.144100
      9 OBC          5.4280     0.0010     2.5910 os         1 7Q7      -0.315900
     10 CBD          6.0120     0.0010     3.8950 c3         1 7Q7       0.123200
     11 CAE          3.3190     0.0000     3.6850 ca         1 7Q7      -0.213000
     12 CAF          1.9260    -0.0060     3.6140 cp         1 7Q7      -0.074500
     13 CAG          1.1210    -0.0130     4.8570 cp         1 7Q7       0.537800
     14 NAH         -0.0320     0.6400     4.9040 nb         1 7Q7      -0.695000
     15 CAI         -0.7860     0.6650     5.9870 ca         1 7Q7       0.425200
     16 CAJ         -0.4110     0.0050     7.1390 ca         1 7Q7      -0.253300
     17 CAK          0.7890    -0.6990     7.1540 ca         1 7Q7      -0.070200
     18 NAM          1.4650    -1.4500     8.0880 na         1 7Q7      -0.255300
     19 CAL          1.5760    -0.7180     5.9870 ca         1 7Q7      -0.013900
     20 NAO          2.6700    -1.4540     6.2540 nc         1 7Q7      -0.586100
     21 CAN          2.6170    -1.8920     7.4920 cd         1 7Q7       0.486400
     22 CAP          3.6410    -2.7350     8.1380 ca         1 7Q7      -0.061900
     23 CAU          4.7920    -3.1280     7.4290 ca         1 7Q7      -0.063800
     24 CAX          5.2790    -2.8900     6.0710 cd         1 7Q7      -0.181200
     25 CAW          6.4580    -3.5270     5.9600 cc         1 7Q7      -0.106100
     26 NAV          6.7620    -4.1510     7.1370 na         1 7Q7      -0.182400
     27 CAT          5.7630    -3.9270     8.0580 ca         1 7Q7      -0.042200
     28 CAS          5.5750    -4.3220     9.3780 ca         1 7Q7      -0.126000
     29 CAR          4.4430    -3.9340    10.0650 ca         1 7Q7      -0.113000
     30 CAQ          3.4800    -3.1470     9.4590 ca         1 7Q7      -0.145000
     31 H1          -0.3610     0.8800     0.5180 h1         1 7Q7       0.043367
     32 H2          -0.3610    -0.8890     0.5030 h1         1 7Q7       0.043367
     33 H3          -0.3610     0.0080    -1.0210 h1         1 7Q7       0.043367
     34 H4           0.2100    -0.0120     2.3140 ha         1 7Q7       0.157000
     35 H5           5.6060     1.3680    -0.4370 h1         1 7Q7       0.033033
     36 H6           4.1190     2.0610     0.2250 h1         1 7Q7       0.033033
     37 H7           4.1240     1.3660    -1.4020 h1         1 7Q7       0.033033
     38 H8           5.7510    -0.9170     4.4080 h1         1 7Q7       0.043367
     39 H9           5.6390     0.8480     4.4580 h1         1 7Q7       0.043367
     40 H10          7.0900     0.0720     3.8080 h1         1 7Q7       0.043367
     41 H11          3.8130     0.0000     4.6490 ha         1 7Q7       0.157000
     42 H12         -1.7190     1.2140     5.9710 h4         1 7Q7       0.026100
     43 H13         -1.0410     0.0360     8.0200 ha         1 7Q7       0.134000
     44 H14          1.1720    -1.6350     9.0270 hn         1 7Q7       0.308700
     45 H16          4.7830    -2.3110     5.3010 ha         1 7Q7       0.184000
     46 H17          7.0740    -3.5440     5.0690 h4         1 7Q7       0.171000
     47 H18          7.5880    -4.6910     7.3040 hn         1 7Q7       0.297700
     48 H19          6.3190    -4.9370     9.8680 ha         1 7Q7       0.129000
     49 H20          4.3080    -4.2480    11.0930 ha         1 7Q7       0.135000
     50 H21          2.5970    -2.8520    10.0130 ha         1 7Q7       0.120000
@<TRIPOS>BOND
     1    25    26 1
     2    25    24 2
     3    26    27 1
     4    24    23 1
     5    27    28 ar
     6    27    23 ar
     7    28    29 ar
     8    23    22 ar
     9    29    30 ar
    10    22    30 ar
    11    22    21 1
    12    18    21 1
    13    18    17 1
    14    21    20 2
    15    17    16 ar
    16    17    19 ar
    17    16    15 ar
    18    20    19 1
    19    19    13 ar
    20    15    14 ar
    21    13    14 ar
    22    13    12 1
    23     4    12 ar
    24     4     3 ar
    25     1     2 1
    26    12    11 ar
    27     2     3 1
    28     3     5 ar
    29    11     8 ar
    30     5     8 ar
    31     5     6 1
    32     8     9 1
    33     6     7 1
    34     9    10 1
    35     1    31 1
    36     1    32 1
    37     1    33 1
    38     4    34 1
    39     7    35 1
    40     7    36 1
    41     7    37 1
    42    10    38 1
    43    10    39 1
    44    10    40 1
    45    11    41 1
    46    15    42 1
    47    16    43 1
    48    18    44 1
    49    24    45 1
    50    25    46 1
    51    26    47 1
    52    28    48 1
    53    29    49 1
    54    30    50 1
@<TRIPOS>SUBSTRUCTURE
     1 7Q7         1 TEMP              0 ****  ****    0 ROOT
