@<TRIPOS>MOLECULE
molecule
   20    19     1     0     0
SMALL
bcc


@<TRIPOS>ATOM
      1 O01          0.0000     0.0000     0.0000 o          1 7QD      -0.481100
      2 C02          1.2080     0.0000     0.0000 c          1 7QD       0.461100
      3 C03          1.9530     0.0000     1.2900 c          1 7QD       0.808600
      4 O04          3.1650    -0.0040     1.2900 o          1 7QD      -0.872300
      5 O05          1.2800     0.0070     2.4560 o          1 7QD      -0.872300
      6 C06          1.9600    -0.0070    -1.3050 c3         1 7QD      -0.186400
      7 C07          0.9660    -0.0120    -2.4680 c3         1 7QD       0.072800
      8 O08          0.1440    -1.1780    -2.3870 oh         1 7QD      -0.555800
      9 C09          0.0990     1.2190    -2.3940 c          1 7QD       0.954600
     10 O10         -1.0990     1.1090    -2.2830 o          1 7QD      -0.861800
     11 O11          0.6590     2.4370    -2.4520 o          1 7QD      -0.861800
     12 C12          1.7300    -0.0180    -3.7930 c3         1 7QD      -0.185400
     13 C13          0.7560     0.0990    -4.9370 c          1 7QD       0.894600
     14 O14          1.2040     0.1150    -6.2020 o          1 7QD      -0.870800
     15 O15         -0.4290     0.1800    -4.7140 o          1 7QD      -0.870800
     16 H062         2.5830    -0.8920    -1.3580 hc         1 7QD       0.039200
     17 H061         2.5830     0.8770    -1.3670 hc         1 7QD       0.039200
     18 H081         0.6760    -1.9470    -2.5140 ho         1 7QD       0.326000
     19 H121         2.4170     0.8190    -3.8170 hc         1 7QD       0.011200
     20 H122         2.2860    -0.9440    -3.8850 hc         1 7QD       0.011200
@<TRIPOS>BOND
     1     4     3 1   
     2     5     3 1   
     3     3     2 1   
     4     2     6 1   
     5     2     1 2   
     6     6     7 1   
     7     8     7 1   
     8     7    12 1   
     9     7     9 1   
    10    12    13 1   
    11    15    13 1   
    12    13    14 1   
    13     9    10 1   
    14     9    11 1   
    15     6    16 1   
    16     6    17 1   
    17     8    18 1   
    18    12    19 1   
    19    12    20 1   
@<TRIPOS>SUBSTRUCTURE
     1 7QD         1 TEMP              0 ****  ****    0 ROOT
