@<TRIPOS>MOLECULE
7QN
   53    57     1     0     0
SMALL
bcc


@<TRIPOS>ATOM
      1 C1           0.0000     0.0000     0.0000 c3         1 7QN      -0.062000
      2 C2           1.5070     0.0000     0.0000 ca         1 7QN      -0.121000
      3 C3           2.1970     0.0000     1.2010 ca         1 7QN       0.078000
      4 C4           3.5840    -0.0010     1.1980 ca         1 7QN      -0.172000
      5 C5           4.2670     0.0000    -0.0010 ca         1 7QN      -0.064000
      6 C6           3.5750     0.0030    -1.2040 ca         1 7QN      -0.079000
      7 C7           2.1960    -0.0060    -1.2030 ca         1 7QN      -0.043000
      8 C8           1.4030    -0.0210    -2.4840 c3         1 7QN      -0.054000
      9 C9           2.2960     0.3940    -3.6550 c3         1 7QN      -0.096000
     10 N10          3.5260    -0.4110    -3.6120 n3         1 7QN      -0.050000
     11 C11          4.3680     0.0160    -2.4860 c3         1 7QN       0.058000
     12 C12          5.5300    -0.9340    -2.3600 c2         1 7QN      -0.203000
     13 C13          6.7920    -0.4430    -2.0730 c2         1 7QN      -0.050000
     14 C14          7.8620    -1.3070    -1.9580 c2         1 7QN      -0.213000
     15 C15          7.6680    -2.6810    -2.1300 c3         1 7QN       0.095000
     16 C16          6.3900    -3.1690    -2.4190 c2         1 7QN      -0.213000
     17 C17          5.3300    -2.2940    -2.5270 c2         1 7QN      -0.050000
     18 C18          8.8040    -3.6080    -2.0090 c2         1 7QN      -0.081000
     19 C19          8.6140    -4.9340    -2.1750 c2         1 7QN      -0.166000
     20 C20          9.7420    -5.8560    -2.0540 c3         1 7QN       0.500000
     21 O21          9.5520    -7.1800    -2.2210 o          1 7QN      -0.587500
     22 O22         10.8530    -5.4280    -1.8030 o          1 7QN      -0.587500
     23 C23          4.2610    -0.3180    -4.8810 c3         1 7QN      -0.098000
     24 C24          3.5570    -1.1660    -5.9420 c3         1 7QN      -0.095000
     25 C25          4.2440    -0.9650    -7.2940 c3         1 7QN      -0.115000
     26 C26          3.6310    -2.6420    -5.5450 c3         1 7QN      -0.115000
     27 O27          1.5180     0.0010     2.3790 oh         1 7QN      -0.248000
     28 H11C        -0.3610    -0.0790     1.0180 hc         1 7QN       0.047333
     29 H12C        -0.3610     0.9210    -0.4410 hc         1 7QN       0.047333
     30 H13C        -0.3610    -0.8430    -0.5770 hc         1 7QN       0.047333
     31 H4           4.1300    -0.0010     2.1330 ha         1 7QN       0.108000
     32 H27          1.8280     0.7080     2.9200 ho         1 7QN       0.193000
     33 H5           5.3500    -0.0010    -0.0040 ha         1 7QN       0.126000
     34 H11          4.7340     1.0180    -2.6710 h1         1 7QN       0.048000
     35 H81C         1.0250    -1.0200    -2.6590 hc         1 7QN       0.063000
     36 H82C         0.5760     0.6730    -2.4010 hc         1 7QN       0.063000
     37 H91C         1.7760     0.2150    -4.5880 h1         1 7QN       0.047500
     38 H92C         2.5460     1.4450    -3.5660 h1         1 7QN       0.047500
     39 H231         5.2720    -0.6810    -4.7400 h1         1 7QN       0.060000
     40 H232         4.2910     0.7150    -5.2050 h1         1 7QN       0.060000
     41 H13          6.9400     0.6210    -1.9400 ha         1 7QN       0.100000
     42 H17          4.3390    -2.6710    -2.7510 ha         1 7QN       0.100000
     43 H14          8.8490    -0.9210    -1.7330 ha         1 7QN       0.122000
     44 H16          6.2320    -4.2320    -2.5520 ha         1 7QN       0.122000
     45 H18          8.3800    -3.2800    -2.9500 DU         1 7QN       0.024000
     46 H19          9.3590    -5.0930    -2.9450 DU         1 7QN       0.077000
     47 H24          2.5190    -0.8630    -6.0160 hc         1 7QN       0.059000
     48 H251         5.2740    -1.2940    -7.2280 hc         1 7QN       0.044333
     49 H252         3.7270    -1.5440    -8.0500 hc         1 7QN       0.044333
     50 H253         4.2160     0.0840    -7.5610 hc         1 7QN       0.044333
     51 H261         4.6670    -2.9280    -5.4070 hc         1 7QN       0.044333
     52 H262         3.0870    -2.7950    -4.6210 hc         1 7QN       0.044333
     53 H263         3.1900    -3.2480    -6.3280 hc         1 7QN       0.044333
@<TRIPOS>BOND
     1     1     2 1   
     2     1    28 1   
     3     1    29 1   
     4     1    30 1   
     5     2     3 1   
     6     2     7 1   
     7     3     4 1   
     8     3    27 1   
     9     4     5 1   
    10     4    31 1   
    11     5     6 1   
    12     5    33 1   
    13     6     7 1   
    14     6    11 1   
    15     7     8 1   
    16     8     9 1   
    17     8    35 1   
    18     8    36 1   
    19     9    10 1   
    20     9    37 1   
    21     9    38 1   
    22    10    11 1   
    23    10    23 1   
    24    11    12 1   
    25    11    34 1   
    26    12    13 1   
    27    12    17 1   
    28    13    14 1   
    29    13    41 1   
    30    14    15 1   
    31    14    43 1   
    32    15    16 1   
    33    15    18 1   
    34    15    45 1   
    35    16    17 1   
    36    16    44 1   
    37    17    42 1   
    38    18    19 1   
    39    18    45 1   
    40    19    20 1   
    41    19    46 1   
    42    20    21 1   
    43    20    22 1   
    44    20    46 1   
    45    23    24 1   
    46    23    39 1   
    47    23    40 1   
    48    24    25 1   
    49    24    26 1   
    50    24    47 1   
    51    25    48 1   
    52    25    49 1   
    53    25    50 1   
    54    26    51 1   
    55    26    52 1   
    56    26    53 1   
    57    27    32 1   
@<TRIPOS>SUBSTRUCTURE
     1 7QN         1 TEMP              0 ****  ****    0 ROOT
