@<TRIPOS>MOLECULE
molecule
   53    55     1     0     0
SMALL
bcc


@<TRIPOS>ATOM
      1 C1           0.0000     0.0000     0.0000 c3         1 7QN      -0.041800
      2 C2           1.5070     0.0000     0.0000 ca         1 7QN      -0.109300
      3 C3           2.1970     0.0000     1.2010 ca         1 7QN       0.108100
      4 C4           3.5840    -0.0010     1.1980 ca         1 7QN      -0.186000
      5 C5           4.2670     0.0000    -0.0010 ca         1 7QN      -0.091000
      6 C6           3.5750     0.0030    -1.2040 ca         1 7QN      -0.075300
      7 C7           2.1960    -0.0060    -1.2030 ca         1 7QN      -0.048300
      8 C8           1.4030    -0.0210    -2.4840 c3         1 7QN      -0.028100
      9 C9           2.2960     0.3940    -3.6550 c3         1 7QN       0.156800
     10 N10          3.5260    -0.4110    -3.6120 n3         1 7QN      -0.713600
     11 C11          4.3680     0.0160    -2.4860 c3         1 7QN       0.274100
     12 C12          5.5300    -0.9340    -2.3600 ca         1 7QN      -0.129300
     13 C13          6.7920    -0.4430    -2.0730 ca         1 7QN      -0.115000
     14 C14          7.8620    -1.3070    -1.9580 ca         1 7QN      -0.146500
     15 C15          7.6680    -2.6810    -2.1300 ca         1 7QN      -0.004800
     16 C16          6.3900    -3.1690    -2.4190 ca         1 7QN      -0.146500
     17 C17          5.3300    -2.2940    -2.5270 ca         1 7QN      -0.115000
     18 C18          8.8040    -3.6080    -2.0090 ce         1 7QN      -0.186200
     19 C19          8.6140    -4.9340    -2.1750 cf         1 7QN      -0.134200
     20 C20          9.7420    -5.8560    -2.0540 c          1 7QN       0.864800
     21 O21          9.5520    -7.1800    -2.2210 o          1 7QN      -0.838300
     22 O22         10.8530    -5.4280    -1.8030 o          1 7QN      -0.838300
     23 C23          4.2610    -0.3180    -4.8810 c3         1 7QN       0.160800
     24 C24          3.5570    -1.1660    -5.9420 c3         1 7QN      -0.072700
     25 C25          4.2440    -0.9650    -7.2940 c3         1 7QN      -0.086100
     26 C26          3.6310    -2.6420    -5.5450 c3         1 7QN      -0.086100
     27 O27          1.5180     0.0010     2.3790 oh         1 7QN      -0.517100
     28 H11C        -0.3610     0.9370    -0.4070 hc         1 7QN       0.042367
     29 H12C        -0.3610    -0.8210    -0.6080 hc         1 7QN       0.042367
     30 H13C        -0.3610    -0.1160     1.0150 hc         1 7QN       0.042367
     31 H4           4.1300    -0.0010     2.1330 ha         1 7QN       0.133000
     32 H27          1.8250     0.7110     2.9180 ho         1 7QN       0.413000
     33 H5           5.3500    -0.0010    -0.0040 ha         1 7QN       0.149000
     34 H11          4.7340     1.0180    -2.6710 h1         1 7QN       0.031700
     35 H81C         0.5760     0.6730    -2.4010 hc         1 7QN       0.054200
     36 H82C         1.0250    -1.0210    -2.6590 hc         1 7QN       0.054200
     37 H91C         1.7760     0.2150    -4.5880 h1         1 7QN       0.032700
     38 H92C         2.5460     1.4450    -3.5660 h1         1 7QN       0.032700
     39 H231         4.2910     0.7150    -5.2050 h1         1 7QN       0.042200
     40 H232         5.2720    -0.6810    -4.7400 h1         1 7QN       0.042200
     41 H13          6.9400     0.6210    -1.9400 ha         1 7QN       0.125500
     42 H17          4.3390    -2.6710    -2.7510 ha         1 7QN       0.125500
     43 H14          8.8490    -0.9210    -1.7330 ha         1 7QN       0.138000
     44 H16          6.2320    -4.2320    -2.5520 ha         1 7QN       0.138000
     45 H18          9.7940    -3.2270    -1.7860 ha         1 7QN       0.152000
     46 H19          7.6240    -5.3150    -2.3970 ha         1 7QN       0.105000
     47 H24          2.5190    -0.8630    -6.0160 hc         1 7QN       0.039700
     48 H251         5.2740    -1.2940    -7.2280 hc         1 7QN       0.035533
     49 H252         3.7270    -1.5440    -8.0500 hc         1 7QN       0.035533
     50 H253         4.2160     0.0840    -7.5610 hc         1 7QN       0.035533
     51 H261         4.6660    -2.9250    -5.3970 hc         1 7QN       0.035533
     52 H262         3.2000    -3.2490    -6.3320 hc         1 7QN       0.035533
     53 H263         3.0790    -2.7970    -4.6260 hc         1 7QN       0.035533
@<TRIPOS>BOND
     1     1     2 1
     2     2     3 ar
     3     2     7 ar
     4     3     4 ar
     5     3    27 1
     6     4     5 ar
     7     5     6 ar
     8     6     7 ar
     9     6    11 1
    10     7     8 1
    11     8     9 1
    12     9    10 1
    13    10    11 1
    14    10    23 1
    15    11    12 1
    16    12    13 ar
    17    12    17 ar
    18    13    14 ar
    19    14    15 ar
    20    15    16 ar
    21    15    18 1
    22    16    17 ar
    23    18    19 2
    24    19    20 1
    25    20    21 1
    26    20    22 1
    27    23    24 1
    28    24    25 1
    29    24    26 1
    30     1    28 1
    31     1    29 1
    32     1    30 1
    33     4    31 1
    34    27    32 1
    35     5    33 1
    36    11    34 1
    37     8    35 1
    38     8    36 1
    39     9    37 1
    40     9    38 1
    41    23    39 1
    42    23    40 1
    43    13    41 1
    44    17    42 1
    45    14    43 1
    46    16    44 1
    47    18    45 1
    48    19    46 1
    49    24    47 1
    50    25    48 1
    51    25    49 1
    52    25    50 1
    53    26    51 1
    54    26    52 1
    55    26    53 1
@<TRIPOS>SUBSTRUCTURE
     1 7QN         1 TEMP              0 ****  ****    0 ROOT
