@<TRIPOS>MOLECULE
molecule
   25    26     1     0     0
SMALL
bcc


@<TRIPOS>ATOM
      1 CAB          0.0000     0.0000     0.0000 c3         1 7QQ      -0.165100
      2 CAK          1.5060     0.0000     0.0000 c          1 7QQ       0.656100
      3 OAC          2.1130     0.0000     1.0500 o          1 7QQ      -0.575100
      4 NAH          2.1800    -0.0020    -1.1680 ns         1 7QQ      -0.450400
      5 CAM          3.5660    -0.0020    -1.1670 cc         1 7QQ       0.470800
      6 SAJ          4.5700    -0.0020     0.2750 ss         1 7QQ      -0.015100
      7 NAG          4.3010    -0.0090    -2.2260 nd         1 7QQ      -0.647100
      8 CAN          5.6390    -0.0080    -2.0650 ca         1 7QQ       0.184400
      9 CAF          6.6460    -0.0140    -3.0520 ca         1 7QQ      -0.127000
     10 CAO          6.0240    -0.0030    -0.7200 ca         1 7QQ      -0.134100
     11 CAE          7.3720    -0.0040    -0.3720 ca         1 7QQ      -0.041000
     12 CAD          8.3420    -0.0050    -1.3500 ca         1 7QQ      -0.214000
     13 CAL          7.9740    -0.0130    -2.6910 ca         1 7QQ       0.145100
     14 OAI          8.9350    -0.0190    -3.6540 os         1 7QQ      -0.327900
     15 CAA         10.2940    -0.0170    -3.2140 c3         1 7QQ       0.129700
     16 HAB1        -0.3610     0.8910    -0.5000 hc         1 7QQ       0.069700
     17 HAB2        -0.3610    -0.0130     1.0210 hc         1 7QQ       0.069700
     18 HAB3        -0.3610    -0.8780    -0.5210 hc         1 7QQ       0.069700
     19 HAH          1.6800     0.0300    -2.0340 hn         1 7QQ       0.345500
     20 HAF          6.3730    -0.0210    -4.1010 ha         1 7QQ       0.157000
     21 HAE          7.6590     0.0020     0.6720 ha         1 7QQ       0.135000
     22 HAD          9.3890    -0.0040    -1.0740 ha         1 7QQ       0.139000
     23 HAA1        10.9520    -0.0230    -4.0750 h1         1 7QQ       0.041367
     24 HAA2        10.4800    -0.8980    -2.6120 h1         1 7QQ       0.041367
     25 HAA3        10.4810     0.8710    -2.6220 h1         1 7QQ       0.041367
@<TRIPOS>BOND
     1     1     2 1
     2     2     3 2
     3     2     4 1
     4     4     5 1
     5     5     6 1
     6     5     7 2
     7     6    10 1
     8     7     8 1
     9     8     9 ar
    10     8    10 ar
    11     9    13 ar
    12    10    11 ar
    13    11    12 ar
    14    12    13 ar
    15    13    14 1
    16    14    15 1
    17     1    16 1
    18     1    17 1
    19     1    18 1
    20     4    19 1
    21     9    20 1
    22    11    21 1
    23    12    22 1
    24    15    23 1
    25    15    24 1
    26    15    25 1
@<TRIPOS>SUBSTRUCTURE
     1 7QQ         1 TEMP              0 ****  ****    0 ROOT
