@<TRIPOS>MOLECULE
molecule
   20    21     1     0     0
SMALL
bcc


@<TRIPOS>ATOM
      1 C1           0.0000     0.0000     0.0000 ca         1 7QS      -0.112000
      2 C2           1.3830     0.0000     0.0000 ca         1 7QS      -0.123500
      3 C6          -0.6910    -0.0010     1.1980 ca         1 7QS      -0.123500
      4 C3           2.0740     0.0000     1.1980 ca         1 7QS      -0.101500
      5 C5          -0.0010    -0.0010     2.3950 ca         1 7QS      -0.101500
      6 C4           1.3820    -0.0010     2.3950 ca         1 7QS      -0.083300
      7 C8           1.7890    -1.2280     4.5170 c          1 7QS       0.705500
      8 C11          1.0030     0.3080     6.0610 c          1 7QS       0.739100
      9 C7           2.1360    -0.0020     3.7000 c3         1 7QS      -0.016300
     10 N10          1.2250    -0.9520     5.6800 ns         1 7QS      -0.585500
     11 O9           2.0030    -2.3590     4.1360 o          1 7QS      -0.563500
     12 O12          0.4940     0.6620     7.1060 o          1 7QS      -0.542500
     13 S13          1.5820     1.3720     4.7650 ss         1 7QS      -0.239700
     14 H1          -0.5420    -0.0000    -0.9380 ha         1 7QS       0.135000
     15 H2           1.9240     0.0010    -0.9380 ha         1 7QS       0.136500
     16 H3          -1.7750    -0.0010     1.1970 ha         1 7QS       0.136500
     17 H4           3.1570     0.0000     1.1980 ha         1 7QS       0.134500
     18 H5          -0.5420    -0.0020     3.3330 ha         1 7QS       0.134500
     19 H6           3.2040     0.0540     3.5330 h1         1 7QS       0.122700
     20 H7           0.9620    -1.7020     6.2880 hn         1 7QS       0.351500
@<TRIPOS>BOND
     1     1     3 ar
     2     1     2 ar
     3     3     5 ar
     4     2     4 ar
     5    11     7 2
     6     5     6 ar
     7     4     6 ar
     8     6     9 1
     9     7    10 1
    10     7     9 1
    11    10     8 1
    12     9    13 1
    13     8    12 2
    14     8    13 1
    15     1    14 1
    16     2    15 1
    17     3    16 1
    18     4    17 1
    19     5    18 1
    20     9    19 1
    21    10    20 1
@<TRIPOS>SUBSTRUCTURE
     1 7QS         1 TEMP              0 ****  ****    0 ROOT
