@<TRIPOS>MOLECULE
7QV
   28    29     1     0     0
SMALL
bcc


@<TRIPOS>ATOM
      1 C17          0.0000     0.0000     0.0000 ca         1 7QV       0.004000
      2 C16          1.3810     0.0000     0.0000 ca         1 7QV      -0.253000
      3 C12          1.3830     0.0010     2.4020 ca         1 7QV      -0.256000
      4 C8          -0.6930     0.0010     1.1960 ca         1 7QV      -0.211300
      5 C13          2.0760     0.0000     1.2020 ca         1 7QV       0.209100
      6 C9          -0.0030    -0.0030     2.3990 ca         1 7QV       0.222100
      7 C2          -2.7400    -1.4040     1.3120 c          1 7QV       0.591500
      8 C4          -3.4240    -0.5460    -0.6160 c          1 7QV       0.764600
      9 C7          -2.2000     0.0080     1.1920 c3         1 7QV       0.164400
     10 C15          4.0830    -0.0020    -0.0730 c3         1 7QV       0.244700
     11 C11          0.0900     0.0010     4.7750 c3         1 7QV       0.246700
     12 N3          -3.4460    -1.6190     0.1840 ns         1 7QV      -0.197500
     13 O6          -3.9870    -0.4940    -1.6910 o          1 7QV      -0.644500
     14 O5          -2.7080     0.4650    -0.0980 os         1 7QV      -0.357900
     15 O14          3.4350    -0.0020     1.2000 os         1 7QV      -0.307900
     16 O10         -0.6850    -0.0040     3.5750 os         1 7QV      -0.302900
     17 H1          -0.5410     0.0020    -0.9390 ha         1 7QV       0.116000
     18 H2           1.9230    -0.0010    -0.9380 ha         1 7QV       0.127000
     19 H3           1.9240    -0.0010     3.3400 ha         1 7QV       0.138000
     20 H4          -2.5860     0.6290     1.9910 h1         1 7QV       0.072700
     21 H5           3.7910    -0.8870    -0.6260 h1         1 7QV      -0.000633
     22 H6           3.7930     0.8820    -0.6270 h1         1 7QV      -0.000633
     23 H7           5.1570    -0.0030     0.0690 h1         1 7QV      -0.000633
     24 H8           0.7150    -0.8830     4.8050 h1         1 7QV       0.000700
     25 H9           0.7150     0.8860     4.7970 h1         1 7QV       0.000700
     26 H10         -0.5720     0.0050     5.6320 h1         1 7QV       0.000700
     27 H11         -3.9260    -2.4710    -0.0270 hn         1 7QV       0.214500
     28 O1          -2.5670    -2.1790     2.2280 o          1 7QV      -0.587500
@<TRIPOS>BOND
     1     1     2 ar  
     2     1     4 ar  
     3     1    17 1   
     4     2     5 ar  
     5     2    18 1   
     6     3     5 ar  
     7     3     6 ar  
     8     3    19 1   
     9     4     6 ar  
    10     4     9 1   
    11     5    15 1   
    12     6    16 1   
    13     7     9 1   
    14     7    12 1   
    15     7    28 2   
    16     8    12 1   
    17     8    13 2   
    18     8    14 1   
    19     9    14 1   
    20     9    20 1   
    21    10    15 1   
    22    10    21 1   
    23    10    22 1   
    24    10    23 1   
    25    11    16 1   
    26    11    24 1   
    27    11    25 1   
    28    11    26 1   
    29    12    27 1   
@<TRIPOS>SUBSTRUCTURE
     1 7QV         1 TEMP              0 ****  ****    0 ROOT
