@<TRIPOS>MOLECULE
7QY
   31    32     1     0     0
SMALL
bcc


@<TRIPOS>ATOM
      1 C7           0.0000     0.0000     0.0000 ca         1 7QY      -0.001000
      2 C8           1.3830     0.0000     0.0000 ca         1 7QY      -0.252000
      3 C12          1.3840     0.0000     2.4010 ca         1 7QY      -0.255000
      4 C6          -0.6930     0.0050     1.1950 ca         1 7QY      -0.197300
      5 C9           2.0780     0.0000     1.2010 ca         1 7QY       0.201100
      6 C13         -0.0030     0.0110     2.3990 ca         1 7QY       0.199100
      7 C2          -4.2180     1.4660     1.4310 c          1 7QY       0.612500
      8 C17         -4.1280     2.6650    -0.5490 c          1 7QY       0.677100
      9 C3          -2.7100     1.4430     1.3090 c3         1 7QY      -0.022600
     10 C11          4.0850    -0.0090    -0.0730 c3         1 7QY       0.244700
     11 C15          0.0900    -0.0010     4.7740 c3         1 7QY       0.242700
     12 C5          -2.1990     0.0040     1.1910 c3         1 7QY       0.077900
     13 N16         -4.8230     2.1070     0.4440 ns         1 7QY      -0.167500
     14 O18         -4.5890     3.2710    -1.4950 o          1 7QY      -0.569500
     15 O10          3.4360    -0.0090     1.2000 os         1 7QY      -0.307900
     16 O14         -0.6850     0.0100     3.5740 os         1 7QY      -0.307900
     17 S4          -2.4080     2.3630    -0.2370 ss         1 7QY      -0.322700
     18 H1          -0.5410    -0.0020    -0.9390 ha         1 7QY       0.115000
     19 H2           1.9240    -0.0020    -0.9380 ha         1 7QY       0.126000
     20 H3           1.9240     0.0020     3.3400 ha         1 7QY       0.136000
     21 H4          -2.2530     1.9510     2.1490 h1         1 7QY       0.100700
     22 H5           5.1590    -0.0120     0.0690 h1         1 7QY      -0.000967
     23 H6           3.7910    -0.8910    -0.6290 h1         1 7QY      -0.000967
     24 H7           3.7960     0.8780    -0.6250 h1         1 7QY      -0.000967
     25 H8          -0.5730    -0.0030     5.6310 h1         1 7QY       0.000367
     26 H9           0.7200     0.8790     4.8070 h1         1 7QY       0.000367
     27 H10          0.7100    -0.8900     4.7960 h1         1 7QY       0.000367
     28 H11         -2.5580    -0.4320     0.2670 hc         1 7QY       0.038700
     29 H12         -2.5630    -0.5780     2.0300 hc         1 7QY       0.038700
     30 H13         -5.8210     2.1740     0.4430 hn         1 7QY       0.196500
     31 O1          -4.8160     0.9430     2.3460 o          1 7QY      -0.603500
@<TRIPOS>BOND
     1     1     2 ar  
     2     1     4 ar  
     3     1    18 1   
     4     2     5 ar  
     5     2    19 1   
     6     3     5 ar  
     7     3     6 ar  
     8     3    20 1   
     9     4     6 ar  
    10     4    12 1   
    11     5    15 1   
    12     6    16 1   
    13     7     9 1   
    14     7    13 1   
    15     7    31 2   
    16     8    13 1   
    17     8    14 2   
    18     8    17 1   
    19     9    12 1   
    20     9    17 1   
    21     9    21 1   
    22    10    15 1   
    23    10    22 1   
    24    10    23 1   
    25    10    24 1   
    26    11    16 1   
    27    11    25 1   
    28    11    26 1   
    29    11    27 1   
    30    12    28 1   
    31    12    29 1   
    32    13    30 1   
@<TRIPOS>SUBSTRUCTURE
     1 7QY         1 TEMP              0 ****  ****    0 ROOT
