@<TRIPOS>MOLECULE
molecule
   31    32     1     0     0
SMALL
bcc


@<TRIPOS>ATOM
      1 C7           0.0000     0.0000     0.0000 ca         1 7R1      -0.042000
      2 C8           1.3820     0.0000     0.0000 ca         1 7R1      -0.256000
      3 C12          1.3830    -0.0010     2.4020 ca         1 7R1      -0.254000
      4 C6          -0.6930    -0.0010     1.1950 ca         1 7R1      -0.177300
      5 C9           2.0770     0.0000     1.2020 ca         1 7R1       0.187100
      6 C13         -0.0040    -0.0020     2.3990 ca         1 7R1       0.184100
      7 C2          -4.2190     1.4570     1.4380 c          1 7R1       0.686500
      8 C17         -4.1290     2.6640    -0.5360 cs         1 7R1       0.444000
      9 C3          -2.7110     1.4330     1.3160 c3         1 7R1      -0.089600
     10 C11          4.0840     0.0000    -0.0710 c3         1 7R1       0.127700
     11 C15          0.0890    -0.0040     4.7740 c3         1 7R1       0.126700
     12 C5          -2.2000    -0.0020     1.1910 c3         1 7R1       0.006900
     13 N16         -4.8250     2.1010     0.4540 ns         1 7R1      -0.504500
     14 O10          3.4350    -0.0000     1.2020 os         1 7R1      -0.325900
     15 O14         -0.6870    -0.0020     3.5740 os         1 7R1      -0.326900
     16 S18         -4.7800     3.5240    -1.8660 s          1 7R1      -0.449400
     17 S4          -2.4100     2.3630    -0.2250 ss         1 7R1      -0.126700
     18 H1          -0.5410     0.0000    -0.9390 ha         1 7R1       0.144000
     19 H2           1.9240     0.0010    -0.9380 ha         1 7R1       0.141000
     20 H3           1.9240    -0.0010     3.3410 ha         1 7R1       0.152000
     21 H4          -2.2540     1.9370     2.1590 h1         1 7R1       0.132700
     22 H5           5.1580     0.0000     0.0710 h1         1 7R1       0.044367
     23 H6           3.7940    -0.8840    -0.6250 h1         1 7R1       0.044367
     24 H7           3.7940     0.8850    -0.6250 h1         1 7R1       0.044367
     25 H8           0.7140    -0.8880     4.7980 h1         1 7R1       0.046033
     26 H9           0.7130     0.8810     4.8010 h1         1 7R1       0.046033
     27 H10         -0.5730    -0.0060     5.6310 h1         1 7R1       0.046033
     28 H11         -2.5590    -0.4340     0.2640 hc         1 7R1       0.074200
     29 H12         -2.5630    -0.5890     2.0260 hc         1 7R1       0.074200
     30 H13         -5.8230     2.1670     0.4520 hn         1 7R1       0.360500
     31 O1          -4.8180     0.9280     2.3500 o          1 7R1      -0.559500
@<TRIPOS>BOND
     1     1     2 ar
     2     1     4 ar
     3     2     5 ar
     4     3     5 ar
     5     3     6 ar
     6     4     6 ar
     7     4    12 1
     8     5    14 1
     9     6    15 1
    10     7     9 1
    11     7    13 1
    12     7    31 2
    13     8    13 1
    14     8    16 2
    15     8    17 1
    16     9    12 1
    17     9    17 1
    18    10    14 1
    19    11    15 1
    20     1    18 1
    21     2    19 1
    22     3    20 1
    23     9    21 1
    24    10    22 1
    25    10    23 1
    26    10    24 1
    27    11    25 1
    28    11    26 1
    29    11    27 1
    30    12    28 1
    31    12    29 1
    32    13    30 1
@<TRIPOS>SUBSTRUCTURE
     1 7R1         1 TEMP              0 ****  ****    0 ROOT
