@<TRIPOS>MOLECULE
molecule
   50    52     1     0     0
SMALL
bcc


@<TRIPOS>ATOM
      1 C02          0.0000     0.0000     0.0000 cc         1 7R2      -0.099000
      2 C03          1.3630     0.0000     0.0000 cc         1 7R2      -0.091000
      3 C04          1.9090     0.0000     1.2650 cc         1 7R2      -0.168000
      4 C05          1.0210    -0.0010     2.2640 cd         1 7R2      -0.094100
      5 C06         -0.8540    -0.0050    -1.1980 ce         1 7R2       0.719800
      6 C21         -3.0400     0.1120    -2.2020 ca         1 7R2       0.124600
      7 C22         -4.2030    -0.6360    -2.3090 ca         1 7R2      -0.139000
      8 C23         -5.0150    -0.5150    -3.4240 ca         1 7R2      -0.097300
      9 C24         -4.6670     0.3600    -4.4400 ca         1 7R2       0.106600
     10 C25         -3.4950     1.1080    -4.3300 ca         1 7R2      -0.147000
     11 C26         -2.6870     0.9860    -3.2210 ca         1 7R2      -0.151000
     12 C27         -6.2640    -1.3580    -3.4890 c3         1 7R2      -0.031100
     13 C28         -7.1980    -0.8140    -4.5720 c3         1 7R2      -0.084400
     14 C29         -6.3650    -0.5720    -5.8370 c3         1 7R2       0.163800
     15 C32         -5.4850     1.1500    -7.9580 c3         1 7R2       0.157800
     16 C34         -3.8430     0.3970    -9.5700 c3         1 7R2       0.144100
     17 C35         -5.4460     2.1050   -10.1830 c3         1 7R2       0.160800
     18 C36         -4.5220     2.7200   -11.2350 c3         1 7R2      -0.094100
     19 N07         -2.2280    -0.0110    -1.0670 nu         1 7R2      -0.783600
     20 N08         -0.3100    -0.0050    -2.3880 n2         1 7R2      -0.879100
     21 N30         -5.4450     0.5390    -5.5860 nh         1 7R2      -0.597000
     22 N33         -4.6390     1.5360    -9.0950 n3         1 7R2      -0.731600
     23 S01         -0.5750    -0.0010     1.6620 ss         1 7R2      -0.112800
     24 H1           1.9580     0.0000    -0.9050 ha         1 7R2       0.176000
     25 H2           2.9780     0.0000     1.4370 ha         1 7R2       0.152000
     26 H3           1.2800    -0.0010     3.3160 h4         1 7R2       0.172000
     27 H4          -4.4790    -1.3190    -1.5150 ha         1 7R2       0.133000
     28 H5          -3.2170     1.7910    -5.1240 ha         1 7R2       0.147000
     29 H6          -1.7800     1.5730    -3.1420 ha         1 7R2       0.152000
     30 H7          -5.9950    -2.3800    -3.7280 hc         1 7R2       0.051700
     31 H8          -6.7680    -1.3280    -2.5310 hc         1 7R2       0.051700
     32 H9          -7.9770    -1.5370    -4.7800 hc         1 7R2       0.055700
     33 H10         -7.6370     0.1200    -4.2400 hc         1 7R2       0.055700
     34 H11         -5.7990    -1.4650    -6.0740 h1         1 7R2       0.042700
     35 H12         -7.0210    -0.3200    -6.6610 h1         1 7R2       0.042700
     36 H13         -4.0180    -0.0870    -6.9890 h1         1 7R2       0.053200
     37 H14         -3.9330     1.6240    -6.5500 h1         1 7R2       0.053200
     38 H15         -6.1360     1.9750    -7.6960 h1         1 7R2       0.040700
     39 H16         -6.0840     0.2890    -8.2300 h1         1 7R2       0.040700
     40 H17         -3.6570     0.5040   -10.6320 h1         1 7R2       0.034033
     41 H18         -2.9000     0.3690    -9.0390 h1         1 7R2       0.034033
     42 H19         -4.3860    -0.5230    -9.3910 h1         1 7R2       0.034033
     43 H20         -6.0860     2.8750    -9.7700 h1         1 7R2       0.032700
     44 H21         -6.0560     1.3360   -10.6420 h1         1 7R2       0.032700
     45 H22         -5.0220     3.5550   -11.7100 hc         1 7R2       0.040367
     46 H23         -4.2780     1.9740   -11.9820 hc         1 7R2       0.040367
     47 H24         -3.6120     3.0660   -10.7590 hc         1 7R2       0.040367
     48 H25         -2.6440    -0.1600    -0.1690 hn         1 7R2       0.439800
     49 H26         -0.8910    -0.0090    -3.2030 hn         1 7R2       0.415400
     50 C31         -4.6000     0.7980    -6.7610 c3         1 7R2       0.162800
@<TRIPOS>BOND
     1     3     4 2
     2     3     2 1
     3     4    23 1
     4     2     1 2
     5     1    23 1
     6     1     5 1
     7    20     5 2
     8     5    19 1
     9    19     6 1
    10    11     6 ar
    11    11    10 ar
    12     6     7 ar
    13    10     9 ar
    14     7     8 ar
    15     9     8 ar
    16     9    21 1
    17     8    12 1
    18    50    21 1
    19    50    15 1
    20    21    14 1
    21    12    13 1
    22    13    14 1
    23    17    18 1
    24    17    22 1
    25    15    22 1
    26    22    16 1
    27     2    24 1
    28     3    25 1
    29     4    26 1
    30     7    27 1
    31    10    28 1
    32    11    29 1
    33    12    30 1
    34    12    31 1
    35    13    32 1
    36    13    33 1
    37    14    34 1
    38    14    35 1
    39    50    36 1
    40    50    37 1
    41    15    38 1
    42    15    39 1
    43    16    40 1
    44    16    41 1
    45    16    42 1
    46    17    43 1
    47    17    44 1
    48    18    45 1
    49    18    46 1
    50    18    47 1
    51    19    48 1
    52    20    49 1
@<TRIPOS>SUBSTRUCTURE
     1 7R2         1 TEMP              0 ****  ****    0 ROOT
