@<TRIPOS>MOLECULE
7R2
   50    52     1     0     0
SMALL
bcc


@<TRIPOS>ATOM
      1 C02          0.0000     0.0000     0.0000 cc         1 7R2      -0.094000
      2 C03          1.3630     0.0000     0.0000 cd         1 7R2      -0.096000
      3 C04          1.9090     0.0000     1.2650 cd         1 7R2      -0.130000
      4 C05          1.0210    -0.0010     2.2640 cc         1 7R2      -0.010100
      5 C06         -0.8540    -0.0050    -1.1980 ce         1 7R2       0.533800
      6 C21         -3.0400     0.1120    -2.2020 ca         1 7R2      -0.018400
      7 C22         -4.2030    -0.6360    -2.3090 ca         1 7R2      -0.112000
      8 C23         -5.0150    -0.5150    -3.4240 ca         1 7R2      -0.108300
      9 C24         -4.6670     0.3600    -4.4400 ca         1 7R2       0.024600
     10 C25         -3.4950     1.1080    -4.3300 ca         1 7R2      -0.141000
     11 C26         -2.6870     0.9860    -3.2210 ca         1 7R2      -0.066000
     12 C27         -6.2640    -1.3580    -3.4890 c3         1 7R2       0.040900
     13 C28         -7.1980    -0.8140    -4.5720 c3         1 7R2      -0.028400
     14 C29         -6.3650    -0.5720    -5.8370 c3         1 7R2       0.131800
     15 C32         -5.4850     1.1500    -7.9580 c3         1 7R2       0.141800
     16 C34         -3.8430     0.3970    -9.5700 c3         1 7R2       0.166100
     17 C35         -5.4460     2.1050   -10.1830 c3         1 7R2       0.152800
     18 C36         -4.5220     2.7200   -11.2350 c3         1 7R2      -0.002100
     19 N07         -2.2280    -0.0110    -1.0670 nu         1 7R2      -0.272600
     20 N08         -0.3100    -0.0050    -2.3880 n2         1 7R2      -0.758100
     21 N30         -5.4450     0.5390    -5.5860 nh         1 7R2      -0.349000
     22 N33         -4.6390     1.5360    -9.0950 n3         1 7R2      -0.541600
     23 S01         -0.5750    -0.0010     1.6620 ss         1 7R2      -0.222800
     24 H1           1.9580     0.0000    -0.9050 ha         1 7R2       0.129000
     25 H2           2.9780     0.0000     1.4370 ha         1 7R2       0.123000
     26 H3           1.2800    -0.0010     3.3160 h4         1 7R2       0.152000
     27 H4          -4.4790    -1.3190    -1.5150 ha         1 7R2       0.105000
     28 H5          -3.2170     1.7910    -5.1240 ha         1 7R2       0.124000
     29 H6          -1.7800     1.5730    -3.1420 ha         1 7R2       0.127000
     30 H7          -6.7680    -1.3280    -2.5310 hc         1 7R2       0.018700
     31 H8          -5.9950    -2.3800    -3.7280 hc         1 7R2       0.018700
     32 H9          -7.9770    -1.5370    -4.7800 hc         1 7R2       0.022700
     33 H10         -7.6370     0.1200    -4.2400 hc         1 7R2       0.022700
     34 H11         -5.7990    -1.4650    -6.0740 h1         1 7R2       0.017200
     35 H12         -7.0210    -0.3200    -6.6610 h1         1 7R2       0.017200
     36 H13         -4.0190    -0.0870    -6.9890 h1         1 7R2       0.032200
     37 H14         -3.9320     1.6240    -6.5500 h1         1 7R2       0.032200
     38 H15         -6.0840     0.2890    -8.2300 h1         1 7R2       0.016200
     39 H16         -6.1360     1.9750    -7.6960 h1         1 7R2       0.016200
     40 H17         -3.6570     0.5040   -10.6320 h1         1 7R2       0.005700
     41 H18         -2.8990     0.3690    -9.0400 h1         1 7R2       0.005700
     42 H19         -4.3860    -0.5230    -9.3900 h1         1 7R2       0.005700
     43 H20         -6.0550     1.3360   -10.6420 h1         1 7R2       0.006200
     44 H21         -6.0860     2.8750    -9.7700 h1         1 7R2       0.006200
     45 H22         -5.0220     3.5550   -11.7100 hc         1 7R2       0.007367
     46 H23         -3.6130     3.0670   -10.7590 hc         1 7R2       0.007367
     47 H24         -4.2770     1.9730   -11.9810 hc         1 7R2       0.007367
     48 H25         -2.6440    -0.1520    -0.1680 hn         1 7R2       0.286800
     49 H26          0.6860    -0.0010    -2.4830 hn         1 7R2       0.330400
     50 C31         -4.6000     0.7980    -6.7610 c3         1 7R2       0.118800
@<TRIPOS>BOND
     1     1     2 2   
     2     1     5 1   
     3     1    23 1   
     4     2     3 1   
     5     2    24 1   
     6     3     4 2   
     7     3    25 1   
     8     4    23 1   
     9     4    26 1   
    10     5    19 1   
    11     5    20 2   
    12     6     7 ar  
    13     6    11 ar  
    14     6    19 1   
    15     7     8 ar  
    16     7    27 1   
    17     8     9 ar  
    18     8    12 1   
    19     9    10 ar  
    20     9    21 1   
    21    10    11 ar  
    22    10    28 1   
    23    11    29 1   
    24    12    13 1   
    25    12    30 1   
    26    12    31 1   
    27    13    14 1   
    28    13    32 1   
    29    13    33 1   
    30    14    21 1   
    31    14    34 1   
    32    14    35 1   
    33    15    22 1   
    34    15    38 1   
    35    15    39 1   
    36    15    50 1   
    37    16    22 1   
    38    16    40 1   
    39    16    41 1   
    40    16    42 1   
    41    17    18 1   
    42    17    22 1   
    43    17    43 1   
    44    17    44 1   
    45    18    45 1   
    46    18    46 1   
    47    18    47 1   
    48    19    48 1   
    49    20    49 1   
    50    21    50 1   
    51    36    50 1   
    52    37    50 1   
@<TRIPOS>SUBSTRUCTURE
     1 7R2         1 TEMP              0 ****  ****    0 ROOT
