@<TRIPOS>MOLECULE
7R4
   23    24     1     0     0
SMALL
bcc


@<TRIPOS>ATOM
      1 C9           0.0000     0.0000     0.0000 ca         1 7R4      -0.091000
      2 C8           1.3830     0.0000     0.0000 ca         1 7R4      -0.097000
      3 C10         -0.6900     0.0050     1.1970 ca         1 7R4      -0.097000
      4 C7           2.0740     0.0000     1.1970 ca         1 7R4      -0.089000
      5 C11          0.0010     0.0120     2.3940 ca         1 7R4      -0.089000
      6 C6           1.3830    -0.0000     2.3950 ca         1 7R4      -0.120300
      7 C2           3.0260    -1.4580     5.5240 c          1 7R4       0.579500
      8 C13          4.7680    -2.5150     4.4250 cs         1 7R4       0.323000
      9 C3           2.3790    -1.4320     4.1570 c3         1 7R4      -0.040600
     10 C5           2.1360     0.0080     3.6990 c3         1 7R4       0.063900
     11 N12          4.2210    -2.0240     5.5390 ns         1 7R4      -0.024500
     12 S14          6.2990    -3.2710     4.3000 s          1 7R4      -0.457400
     13 S4           3.6240    -2.2450     3.0990 ss         1 7R4      -0.200700
     14 H1          -0.5420    -0.0030    -0.9380 ha         1 7R4       0.105000
     15 H2           1.9240    -0.0020    -0.9380 ha         1 7R4       0.106000
     16 H3          -1.7740     0.0100     1.1980 ha         1 7R4       0.106000
     17 H4           3.1570    -0.0050     1.1970 ha         1 7R4       0.112500
     18 H5          -0.5410     0.0140     3.3320 ha         1 7R4       0.112500
     19 H6           1.4560    -2.0000     4.1620 h1         1 7R4       0.101700
     20 H7           1.5550     0.5320     4.4480 hc         1 7R4       0.038700
     21 H8           3.0870     0.5090     3.5640 hc         1 7R4       0.038700
     22 H9           4.7250    -2.0850     6.4010 hn         1 7R4       0.202500
     23 O1           2.5000    -0.9960     6.5140 o          1 7R4      -0.584500
@<TRIPOS>BOND
     1     1     2 ar  
     2     1     3 ar  
     3     1    14 1   
     4     2     4 ar  
     5     2    15 1   
     6     3     5 ar  
     7     3    16 1   
     8     4     6 ar  
     9     4    17 1   
    10     5     6 ar  
    11     5    18 1   
    12     6    10 1   
    13     7     9 1   
    14     7    11 1   
    15     7    23 2   
    16     8    11 1   
    17     8    12 2   
    18     8    13 1   
    19     9    10 1   
    20     9    13 1   
    21     9    19 1   
    22    10    20 1   
    23    10    21 1   
    24    11    22 1   
@<TRIPOS>SUBSTRUCTURE
     1 7R4         1 TEMP              0 ****  ****    0 ROOT
