@<TRIPOS>MOLECULE
7R7
   28    29     1     0     0
SMALL
bcc


@<TRIPOS>ATOM
      1 C17          0.0000     0.0000     0.0000 ca         1 7R7       0.004000
      2 C16          1.3810     0.0000     0.0000 ca         1 7R7      -0.250000
      3 C12          1.3820    -0.0010     2.4020 ca         1 7R7      -0.255000
      4 C8          -0.6940    -0.0010     1.1950 ca         1 7R7      -0.217300
      5 C13          2.0760     0.0000     1.2010 ca         1 7R7       0.212100
      6 C9          -0.0040    -0.0060     2.3990 ca         1 7R7       0.224100
      7 C2          -2.7390    -1.4070     1.3100 c          1 7R7       0.570500
      8 C4          -3.4240    -0.5500    -0.6190 cs         1 7R7       0.476500
      9 C7          -2.2010     0.0040     1.1910 c3         1 7R7       0.144400
     10 C15          4.0830    -0.0000    -0.0720 c3         1 7R7       0.244700
     11 C11          0.0880    -0.0020     4.7740 c3         1 7R7       0.246700
     12 N3          -3.4460    -1.6230     0.1820 ns         1 7R7      -0.093500
     13 O5          -2.7090     0.4630    -0.0990 os         1 7R7      -0.280900
     14 O14          3.4360    -0.0000     1.2010 os         1 7R7      -0.305900
     15 O10         -0.6870    -0.0070     3.5730 os         1 7R7      -0.304900
     16 S6          -4.2180    -0.4760    -2.1340 s          1 7R7      -0.554400
     17 H1          -0.5410     0.0020    -0.9390 ha         1 7R7       0.117000
     18 H2           1.9230     0.0010    -0.9380 ha         1 7R7       0.129000
     19 H3           1.9230    -0.0030     3.3400 ha         1 7R7       0.139000
     20 H4          -2.5880     0.6240     1.9910 h1         1 7R7       0.081700
     21 H5           3.7920    -0.8850    -0.6250 h1         1 7R7       0.000700
     22 H6           3.7920     0.8840    -0.6250 h1         1 7R7       0.000700
     23 H7           5.1570    -0.0010     0.0690 h1         1 7R7       0.000700
     24 H8           0.7130     0.8830     4.7980 h1         1 7R7       0.002033
     25 H9           0.7130    -0.8860     4.8050 h1         1 7R7       0.002033
     26 H10         -0.5750     0.0010     5.6310 h1         1 7R7       0.002033
     27 H11         -3.9250    -2.4760    -0.0300 hn         1 7R7       0.224500
     28 O1          -2.5660    -2.1830     2.2250 o          1 7R7      -0.559500
@<TRIPOS>BOND
     1     1     2 ar  
     2     1     4 ar  
     3     1    17 1   
     4     2     5 ar  
     5     2    18 1   
     6     3     5 ar  
     7     3     6 ar  
     8     3    19 1   
     9     4     6 ar  
    10     4     9 1   
    11     5    14 1   
    12     6    15 1   
    13     7     9 1   
    14     7    12 1   
    15     7    28 2   
    16     8    12 1   
    17     8    13 1   
    18     8    16 2   
    19     9    13 1   
    20     9    20 1   
    21    10    14 1   
    22    10    21 1   
    23    10    22 1   
    24    10    23 1   
    25    11    15 1   
    26    11    24 1   
    27    11    25 1   
    28    11    26 1   
    29    12    27 1   
@<TRIPOS>SUBSTRUCTURE
     1 7R7         1 TEMP              0 ****  ****    0 ROOT
