@<TRIPOS>MOLECULE
molecule
   28    29     1     0     0
SMALL
bcc


@<TRIPOS>ATOM
      1 C17          0.0000     0.0000     0.0000 ca         1 7R7      -0.027000
      2 C16          1.3810     0.0000     0.0000 ca         1 7R7      -0.257000
      3 C12          1.3820    -0.0010     2.4020 ca         1 7R7      -0.256000
      4 C8          -0.6940    -0.0010     1.1950 ca         1 7R7      -0.188300
      5 C13          2.0760     0.0000     1.2010 ca         1 7R7       0.197100
      6 C9          -0.0040    -0.0060     2.3990 ca         1 7R7       0.206100
      7 C2          -2.7390    -1.4070     1.3100 c          1 7R7       0.668500
      8 C4          -3.4240    -0.5500    -0.6190 cs         1 7R7       0.602500
      9 C7          -2.2010     0.0040     1.1910 c3         1 7R7       0.095400
     10 C15          4.0830    -0.0000    -0.0720 c3         1 7R7       0.126700
     11 C11          0.0880    -0.0020     4.7740 c3         1 7R7       0.127700
     12 N3          -3.4460    -1.6230     0.1820 ns         1 7R7      -0.543500
     13 O5          -2.7090     0.4630    -0.0990 os         1 7R7      -0.305900
     14 O14          3.4360    -0.0000     1.2010 os         1 7R7      -0.323900
     15 O10         -0.6870    -0.0070     3.5730 os         1 7R7      -0.322900
     16 S6          -4.2180    -0.4760    -2.1340 s          1 7R7      -0.510400
     17 H1          -0.5410     0.0020    -0.9390 ha         1 7R7       0.151000
     18 H2           1.9230     0.0010    -0.9380 ha         1 7R7       0.144000
     19 H3           1.9230    -0.0030     3.3400 ha         1 7R7       0.156000
     20 H4          -2.5880     0.6240     1.9910 h1         1 7R7       0.128700
     21 H5           3.7920    -0.8850    -0.6250 h1         1 7R7       0.045700
     22 H6           3.7920     0.8840    -0.6250 h1         1 7R7       0.045700
     23 H7           5.1570    -0.0010     0.0690 h1         1 7R7       0.045700
     24 H8           0.7130     0.8830     4.7980 h1         1 7R7       0.047700
     25 H9           0.7130    -0.8860     4.8050 h1         1 7R7       0.047700
     26 H10         -0.5750     0.0010     5.6310 h1         1 7R7       0.047700
     27 H11         -3.9250    -2.4760    -0.0300 hn         1 7R7       0.381500
     28 O1          -2.5660    -2.1830     2.2250 o          1 7R7      -0.532500
@<TRIPOS>BOND
     1    10    14 1
     2    14     5 1
     3    28     7 2
     4     5     2 ar
     5     5     3 ar
     6     2     1 ar
     7     3     6 ar
     8     1     4 ar
     9     6     4 ar
    10     6    15 1
    11     7     9 1
    12     7    12 1
    13     4     9 1
    14    15    11 1
    15     9    13 1
    16    12     8 1
    17     8    13 1
    18     8    16 2
    19     1    17 1
    20     2    18 1
    21     3    19 1
    22     9    20 1
    23    10    21 1
    24    10    22 1
    25    10    23 1
    26    11    24 1
    27    11    25 1
    28    11    26 1
    29    12    27 1
@<TRIPOS>SUBSTRUCTURE
     1 7R7         1 TEMP              0 ****  ****    0 ROOT
