@<TRIPOS>MOLECULE
molecule
   74    77     1     0     0
SMALL
bcc


@<TRIPOS>ATOM
      1 C36          0.0000     0.0000     0.0000 cc         1 7R9      -0.070000
      2 C35          1.3740     0.0000     0.0000 cc         1 7R9      -0.170000
      3 C34          1.9430     0.0000     1.2140 cd         1 7R9       0.054300
      4 Cl           3.6550     0.0000     1.5000 cl         1 7R9      -0.045400
      5 S33          0.7570    -0.0000     2.4410 ss         1 7R9      -0.039800
      6 C32         -0.5410     0.0000     1.2560 cd         1 7R9      -0.131700
      7 C31         -1.9730     0.0020     1.5630 c          1 7R9       0.708700
      8 O42         -2.7890     0.0020     0.6600 o          1 7R9      -0.599100
      9 N30         -2.3870     0.0020     2.8450 ns         1 7R9      -0.584900
     10 C22         -3.8180     0.0020     3.1530 c3         1 7R9       0.118000
     11 C19         -4.0140     0.0020     4.6710 c3         1 7R9       0.157500
     12 C20         -5.4830    -0.1140     4.9880 c          1 7R9       0.655100
     13 O41         -5.9610    -1.1970     5.2530 o          1 7R9      -0.585100
     14 N21         -6.2640     0.9830     4.9770 n          1 7R9      -0.495800
     15 C23         -7.7260     1.0000     5.1730 c3         1 7R9       0.109000
     16 C26         -5.8000     2.3630     4.7750 c3         1 7R9       0.088000
     17 C25         -7.0440     3.2760     4.8160 c3         1 7R9      -0.087400
     18 C24         -8.2040     2.3000     4.4790 c3         1 7R9       0.149500
     19 N27         -9.4690     2.7700     5.0570 n3         1 7R9      -0.724600
     20 C29         -9.9230     4.0020     4.3990 c3         1 7R9       0.149100
     21 C28        -10.5000     1.7250     4.9860 c3         1 7R9       0.149100
     22 N18         -3.2960    -1.1330     5.2560 n7         1 7R9      -0.890100
     23 S17         -2.5560    -0.9740     6.7300 sy         1 7R9       1.427200
     24 O38         -1.9690    -2.2340     7.0210 o          1 7R9      -0.632300
     25 O39         -1.8140     0.2370     6.6770 o          1 7R9      -0.632300
     26 C9          -3.8250    -0.7270     7.9260 ca         1 7R9      -0.316500
     27 C8          -4.7430    -1.7330     8.1800 ca         1 7R9       0.207100
     28 O13         -4.6660    -2.9130     7.5070 os         1 7R9      -0.367900
     29 C14         -4.0050    -3.9940     8.1660 c3         1 7R9       0.585700
     30 F16         -2.7400    -3.5770     8.5950 f          1 7R9      -0.224300
     31 F15         -4.7620    -4.3990     9.2720 f          1 7R9      -0.224300
     32 C10         -3.9020     0.4690     8.6160 ca         1 7R9      -0.027000
     33 C11         -4.8960     0.6660     9.5560 ca         1 7R9      -0.148000
     34 C12         -5.8180    -0.3310     9.8120 ca         1 7R9      -0.050000
     35 C7          -5.7440    -1.5350     9.1280 ca         1 7R9       0.036600
     36 N3          -6.6750    -2.5500     9.3890 n          1 7R9      -0.398000
     37 C2          -7.7740    -2.7280     8.4470 c3         1 7R9       0.108000
     38 C1          -8.3940    -4.1160     8.6050 c3         1 7R9      -0.096400
     39 C6          -8.7120    -4.3470    10.0870 c3         1 7R9      -0.090400
     40 C5          -7.3930    -4.4400    10.8570 c3         1 7R9      -0.142400
     41 C4          -6.4980    -3.2950    10.4800 c          1 7R9       0.711500
     42 O40         -5.5660    -3.0310    11.2100 o          1 7R9      -0.642500
     43 H36         -0.5960     0.0000    -0.9050 ha         1 7R9       0.176000
     44 H35          1.9560    -0.0000    -0.9140 ha         1 7R9       0.164000
     45 H30         -1.7160     0.0320     3.5870 hn         1 7R9       0.324500
     46 H221        -4.2790    -0.8820     2.7290 h1         1 7R9       0.067700
     47 H222        -4.2780     0.8870     2.7300 h1         1 7R9       0.067700
     48 H19         -3.6270     0.9260     5.0840 h1         1 7R9       0.085700
     49 H18         -3.2230    -1.9930     4.7500 hn         1 7R9       0.470800
     50 H231        -7.9620     1.0300     6.2300 h1         1 7R9       0.063700
     51 H232        -8.1780     0.1350     4.7030 h1         1 7R9       0.063700
     52 H261        -5.1150     2.6400     5.5660 h1         1 7R9       0.045700
     53 H262        -5.3130     2.4500     3.8110 h1         1 7R9       0.045700
     54 H24         -8.2870     2.1560     3.4090 h1         1 7R9       0.044700
     55 H251        -6.9710     4.0550     4.0660 hc         1 7R9       0.065200
     56 H252        -7.1750     3.6970     5.8050 hc         1 7R9       0.065200
     57 H291        -9.2750     4.8230     4.6830 h1         1 7R9       0.035367
     58 H292        -9.8910     3.8710     3.3250 h1         1 7R9       0.035367
     59 H293       -10.9390     4.2220     4.7060 h1         1 7R9       0.035367
     60 H281       -10.4670     1.2500     4.0120 h1         1 7R9       0.035367
     61 H282       -10.3180     0.9840     5.7550 h1         1 7R9       0.035367
     62 H283       -11.4760     2.1700     5.1370 h1         1 7R9       0.035367
     63 H10         -3.1810     1.2540     8.4190 ha         1 7R9       0.157000
     64 H14         -3.8980    -4.8240     7.4790 h3         1 7R9       0.118700
     65 H11         -4.9540     1.6060    10.0930 ha         1 7R9       0.141000
     66 H12         -6.5960    -0.1740    10.5490 ha         1 7R9       0.148000
     67 H21C        -7.3990    -2.6180     7.4370 h1         1 7R9       0.054700
     68 H22C        -8.5310    -1.9760     8.6370 h1         1 7R9       0.054700
     69 H11C        -9.3070    -4.1730     8.0250 hc         1 7R9       0.055700
     70 H12C        -7.6920    -4.8670     8.2640 hc         1 7R9       0.055700
     71 H61C        -9.2650    -5.2710    10.2010 hc         1 7R9       0.048200
     72 H62C        -9.2970    -3.5170    10.4670 hc         1 7R9       0.048200
     73 H51C        -7.5950    -4.4000    11.9210 hc         1 7R9       0.077200
     74 H52C        -6.9010    -5.3740    10.6140 hc         1 7R9       0.077200
@<TRIPOS>BOND
     1     1     2 1   
     2     1     6 2   
     3     2     3 2   
     4     3     4 1   
     5     3     5 1   
     6     5     6 1   
     7     6     7 1   
     8     7     8 2   
     9     7     9 1   
    10     9    10 1   
    11    10    11 1   
    12    11    12 1   
    13    11    22 1   
    14    12    13 2   
    15    12    14 1   
    16    14    15 1   
    17    14    16 1   
    18    15    18 1   
    19    16    17 1   
    20    17    18 1   
    21    18    19 1   
    22    19    20 1   
    23    19    21 1   
    24    22    23 1   
    25    23    24 2   
    26    23    25 2   
    27    23    26 1   
    28    26    27 ar  
    29    26    32 ar  
    30    27    28 1   
    31    27    35 ar  
    32    28    29 1   
    33    29    30 1   
    34    29    31 1   
    35    32    33 ar  
    36    33    34 ar  
    37    34    35 ar  
    38    35    36 1   
    39    36    37 1   
    40    36    41 1   
    41    37    38 1   
    42    38    39 1   
    43    39    40 1   
    44    40    41 1   
    45    41    42 2   
    46     1    43 1   
    47     2    44 1   
    48     9    45 1   
    49    10    46 1   
    50    10    47 1   
    51    11    48 1   
    52    22    49 1   
    53    15    50 1   
    54    15    51 1   
    55    16    52 1   
    56    16    53 1   
    57    18    54 1   
    58    17    55 1   
    59    17    56 1   
    60    20    57 1   
    61    20    58 1   
    62    20    59 1   
    63    21    60 1   
    64    21    61 1   
    65    21    62 1   
    66    32    63 1   
    67    29    64 1   
    68    33    65 1   
    69    34    66 1   
    70    37    67 1   
    71    37    68 1   
    72    38    69 1   
    73    38    70 1   
    74    39    71 1   
    75    39    72 1   
    76    40    73 1   
    77    40    74 1   
@<TRIPOS>SUBSTRUCTURE
     1 7R9         1 TEMP              0 ****  ****    0 ROOT
