@<TRIPOS>MOLECULE
molecule
   35    37     1     0     0
SMALL
bcc


@<TRIPOS>ATOM
      1 C4           0.0000     0.0000     0.0000 ca         1 7RA       0.625300
      2 C5           1.4080     0.0000     0.0000 ca         1 7RA      -0.333800
      3 C6           2.0750     0.0000     1.2150 ca         1 7RA       0.453200
      4 N1           1.3650     0.0010     2.3320 nb         1 7RA      -0.776000
      5 C2           0.0380     0.0020     2.3030 ca         1 7RA       0.884900
      6 N3          -0.6410    -0.0050     1.1700 nb         1 7RA      -0.717000
      7 N9          -0.3890     0.0000    -1.2890 nc         1 7RA      -0.717700
      8 C8           0.6580    -0.0000    -2.0660 cd         1 7RA       0.529700
      9 N7           1.7900     0.0000    -1.3270 na         1 7RA      -0.127300
     10 N10         -0.6580     0.0010     3.5010 nv         1 7RA      -1.059500
     11 P            4.7510    -2.1330    -6.8710 p5         1 7RA       1.143900
     12 O1P          5.9180    -2.7100    -6.1640 o          1 7RA      -0.905167
     13 O2P          3.9620    -3.3020    -7.6460 o          1 7RA      -0.905167
     14 O3P          5.2590    -1.0340    -7.9310 o          1 7RA      -0.905167
     15 O5'          3.7680    -1.4380    -5.8030 os         1 7RA      -0.524200
     16 C5'          4.5220    -0.4150    -5.1520 c3         1 7RA       0.164400
     17 C4'          3.6410     0.2900    -4.1180 c3         1 7RA       0.129100
     18 O4'          3.2050    -0.6420    -3.1170 os         1 7RA      -0.355600
     19 C3'          4.4580     1.3580    -3.3500 c3         1 7RA       0.088100
     20 O3'          4.4580     2.6060    -4.0440 oh         1 7RA      -0.576800
     21 C2'          3.6510     1.4520    -2.0250 c3         1 7RA       0.065100
     22 O2'          2.5480     2.3480    -2.1650 oh         1 7RA      -0.574800
     23 C1'          3.1620    -0.0000    -1.8380 c3         1 7RA       0.244800
     24 H6           3.0820    -0.1100     1.5970 h4         1 7RA       0.032100
     25 H8           0.6250    -0.0020    -3.1490 h5         1 7RA       0.110800
     26 H101        -0.9140     0.8670     3.9310 hn         1 7RA       0.430300
     27 H102        -0.9160    -0.8660     3.9290 hn         1 7RA       0.430300
     28 H5'1         4.8580     0.3080    -5.8850 h1         1 7RA       0.055200
     29 H5'2         5.3810    -0.8580    -4.6610 h1         1 7RA       0.055200
     30 H4'          2.7850     0.7500    -4.5980 h1         1 7RA       0.073700
     31 H3'          5.4670     1.0100    -3.1620 h1         1 7RA       0.061700
     32 HO'3         5.3180     2.9910    -3.9980 ho         1 7RA       0.392000
     33 H2'          4.2940     1.7470    -1.2050 h1         1 7RA       0.029700
     34 HO'2         2.7710     3.1830    -1.7880 ho         1 7RA       0.398000
     35 H1'          3.8150    -0.5190    -1.1480 h2         1 7RA       0.081700
@<TRIPOS>BOND
     1     1     2 ar  
     2     1     6 ar  
     3     1     7 1   
     4     2     3 ar  
     5     2     9 1   
     6     3     4 ar  
     7     3    24 1   
     8     4     5 ar  
     9     5     6 ar  
    10     5    10 1   
    11     7     8 2   
    12     8     9 1   
    13     8    25 1   
    14     9    23 1   
    15    10    26 1   
    16    10    27 1   
    17    11    12 1   
    18    11    13 1   
    19    11    14 1   
    20    11    15 1   
    21    15    16 1   
    22    16    17 1   
    23    16    28 1   
    24    16    29 1   
    25    17    18 1   
    26    17    19 1   
    27    17    30 1   
    28    18    23 1   
    29    19    20 1   
    30    19    21 1   
    31    19    31 1   
    32    20    32 1   
    33    21    22 1   
    34    21    23 1   
    35    21    33 1   
    36    22    34 1   
    37    23    35 1   
@<TRIPOS>SUBSTRUCTURE
     1 7RA         1 TEMP              0 ****  ****    0 ROOT
