@<TRIPOS>MOLECULE
7RG
   54    58     1     0     0
SMALL
bcc


@<TRIPOS>ATOM
      1 N1           0.0000     0.0000     0.0000 na         1 7RG       0.523400
      2 N2           1.4000     0.0000     0.0000 nc         1 7RG      -0.644800
      3 C3           1.8360     0.0000     1.2290 cd         1 7RG       0.483200
      4 C4           0.7250     0.0000     2.0930 cd         1 7RG      -0.449900
      5 C5           0.5520     0.0010     3.5450 c          1 7RG       0.653100
      6 O6           1.5120     0.0010     4.2960 o          1 7RG      -0.667500
      7 N7          -0.7140     0.0010     4.0250 ns         1 7RG      -0.001400
      8 C8          -1.7680     0.0010     3.1710 cd         1 7RG       0.320900
      9 N9          -1.6330     0.0000     1.8770 nc         1 7RG      -0.531100
     10 C10         -0.4270     0.0000     1.2900 cc         1 7RG       0.011100
     11 C11         -3.1600     0.0010     3.7480 c3         1 7RG      -0.110000
     12 C12         -3.6530    -1.4420     3.9850 c3         1 7RG       0.163800
     13 N13         -5.0790    -1.4850     3.6110 n3         1 7RG      -0.530600
     14 C14         -5.4910    -0.1320     3.1790 c3         1 7RG       0.142800
     15 C15         -4.1800     0.5590     2.7210 c3         1 7RG      -0.052700
     16 C16         -5.9040    -1.9540     4.7320 c3         1 7RG       0.113500
     17 C17         -7.3060    -2.2180     4.2480 ca         1 7RG       0.595300
     18 N18         -7.6140    -3.4180     3.7980 nb         1 7RG      -0.610500
     19 C19         -8.8350    -3.6870     3.3650 ca         1 7RG       0.440700
     20 C20         -9.7940    -2.6870     3.3890 ca         1 7RG      -0.347600
     21 C21         -9.4330    -1.4380     3.8680 ca         1 7RG       0.440700
     22 N22         -8.1930    -1.2450     4.2890 nb         1 7RG      -0.610500
     23 C23         -0.8580     0.0060    -1.1870 c3         1 7RG      -0.038000
     24 C24         -0.5750    -1.2420    -2.0290 c3         1 7RG      -0.082400
     25 C25         -1.4190    -1.1880    -3.3050 c3         1 7RG       0.219900
     26 O26         -1.1190     0.0110    -4.0230 os         1 7RG      -0.404600
     27 C27         -1.4070     1.2110    -3.3030 c3         1 7RG       0.219900
     28 C28         -0.5640     1.2540    -2.0250 c3         1 7RG      -0.082400
     29 C29         -4.2970     2.0810     2.8260 c3         1 7RG       0.011900
     30 H3           2.8760    -0.0000     1.5330 h4         1 7RG       0.014100
     31 HN7         -0.8730     0.0020     5.0130 hn         1 7RG       0.183500
     32 H11         -3.1990     0.5710     4.6690 hc         1 7RG       0.041700
     33 H12         -3.5400    -1.7020     5.0300 h1         1 7RG       0.021700
     34 H12A        -3.0900    -2.1290     3.3650 h1         1 7RG       0.021700
     35 H14         -5.9310     0.4090     4.0080 h1         1 7RG       0.026200
     36 H14A        -6.1880    -0.1990     2.3520 h1         1 7RG       0.026200
     37 H15         -3.9170     0.2530     1.7150 hc         1 7RG       0.070700
     38 H16         -5.4820    -2.8680     5.1320 h1         1 7RG       0.025700
     39 H16A        -5.9250    -1.1970     5.5060 h1         1 7RG       0.025700
     40 H19         -9.0810    -4.6760     2.9970 h4         1 7RG      -0.014400
     41 H20        -10.8020    -2.8760     3.0390 ha         1 7RG       0.123000
     42 H21        -10.1560    -0.6330     3.9030 h4         1 7RG      -0.014400
     43 H23         -1.8990     0.0100    -0.8870 h1         1 7RG       0.057700
     44 H24         -0.8350    -2.1270    -1.4610 hc         1 7RG       0.039450
     45 H24A         0.4750    -1.2690    -2.2920 hc         1 7RG       0.039450
     46 H25         -1.1900    -2.0460    -3.9250 h1         1 7RG       0.009700
     47 H25A        -2.4700    -1.1960    -3.0430 h1         1 7RG       0.009700
     48 H27         -2.4580     1.2300    -3.0410 h1         1 7RG       0.009700
     49 H27A        -1.1680     2.0680    -3.9210 h1         1 7RG       0.009700
     50 H28          0.4870     1.2740    -2.2870 hc         1 7RG       0.039450
     51 H28A        -0.8180     2.1400    -1.4550 hc         1 7RG       0.039450
     52 H29         -4.5370     2.3550     3.8460 hc         1 7RG       0.005367
     53 H29A        -3.3560     2.5360     2.5420 hc         1 7RG       0.005367
     54 H29B        -5.0810     2.4290     2.1650 hc         1 7RG       0.005367
@<TRIPOS>BOND
     1     1     2 1   
     2     1    10 1   
     3     1    23 1   
     4     2     3 2   
     5     3     4 1   
     6     3    30 1   
     7     4     5 1   
     8     4    10 2   
     9     5     6 2   
    10     5     7 1   
    11     7     8 1   
    12     7    31 1   
    13     8     9 2   
    14     8    11 1   
    15     9    10 1   
    16    11    12 1   
    17    11    15 1   
    18    11    32 1   
    19    12    13 1   
    20    12    33 1   
    21    12    34 1   
    22    13    14 1   
    23    13    16 1   
    24    14    15 1   
    25    14    35 1   
    26    14    36 1   
    27    15    29 1   
    28    15    37 1   
    29    16    17 1   
    30    16    38 1   
    31    16    39 1   
    32    17    18 ar  
    33    17    22 ar  
    34    18    19 ar  
    35    19    20 ar  
    36    19    40 1   
    37    20    21 ar  
    38    20    41 1   
    39    21    22 ar  
    40    21    42 1   
    41    23    24 1   
    42    23    28 1   
    43    23    43 1   
    44    24    25 1   
    45    24    44 1   
    46    24    45 1   
    47    25    26 1   
    48    25    46 1   
    49    25    47 1   
    50    26    27 1   
    51    27    28 1   
    52    27    48 1   
    53    27    49 1   
    54    28    50 1   
    55    28    51 1   
    56    29    52 1   
    57    29    53 1   
    58    29    54 1   
@<TRIPOS>SUBSTRUCTURE
     1 7RG         1 TEMP              0 ****  ****    0 ROOT
