@<TRIPOS>MOLECULE
molecule
   42    44     1     0     0
SMALL
bcc


@<TRIPOS>ATOM
      1 C01          0.0000     0.0000     0.0000 c3         1 7RM      -0.172100
      2 C02          1.5080     0.0000     0.0000 c          1 7RM       0.670100
      3 C09          4.1370     2.4450     1.4200 c3         1 7RM       0.166400
      4 C10          4.6180     3.7080     0.7020 c3         1 7RM       0.134100
      5 C11          4.5820     4.9190     1.6610 c3         1 7RM       0.090100
      6 C12          4.1330     6.0940     0.7650 c3         1 7RM       0.090100
      7 C13          3.9520     5.4550    -0.6300 c3         1 7RM       0.258800
      8 C16          1.5330     5.5640    -1.3400 cc         1 7RM       0.426700
      9 C18          1.5020     7.3760    -2.5310 ca         1 7RM      -0.213200
     10 C19          2.8150     7.2060    -2.0620 ca         1 7RM       0.480800
     11 C21          3.4330     9.1370    -3.1440 ca         1 7RM       0.743900
     12 C23          1.2220     8.4970    -3.3310 ca         1 7RM       0.789200
     13 N04          2.1810     0.0000     1.1670 ns         1 7RM      -0.686300
     14 N15          2.8060     6.0520    -1.3200 na         1 7RM      -0.255000
     15 N17          0.7700     6.3410    -2.0520 nd         1 7RM      -0.586100
     16 N20          3.7390     8.1020    -2.3910 nb         1 7RM      -0.789000
     17 N22          2.2120     9.3400    -3.6070 nb         1 7RM      -0.836000
     18 N24         -0.0520     8.7160    -3.8220 nv         1 7RM      -0.982500
     19 O03          2.1150     0.0010    -1.0500 o          1 7RM      -0.539100
     20 O06          4.2380     0.0360     2.5310 o          1 7RM      -0.629300
     21 O07          4.2390    -1.0210     0.2650 o          1 7RM      -0.629300
     22 O08          4.2880     1.3180     0.5540 os         1 7RM      -0.532500
     23 O14          3.7100     4.0560    -0.3670 os         1 7RM      -0.403600
     24 O25          5.1420     7.1060     0.7250 oh         1 7RM      -0.556800
     25 O26          5.8800     5.1680     2.2010 oh         1 7RM      -0.565800
     26 S05          3.8370     0.0010     1.1680 s6         1 7RM       1.656100
     27 H1          -0.3610     0.0820    -1.0180 hc         1 7RM       0.067367
     28 H2          -0.3610    -0.9230     0.4380 hc         1 7RM       0.067367
     29 H3          -0.3610     0.8410     0.5800 hc         1 7RM       0.067367
     30 H4           4.7260     2.2930     2.3160 h1         1 7RM       0.066200
     31 H5           3.0930     2.5580     1.6870 h1         1 7RM       0.066200
     32 H6           5.6190     3.5680     0.3120 h1         1 7RM       0.103700
     33 H7           3.8610     4.7520     2.4520 h1         1 7RM       0.044700
     34 H8           3.1940     6.5010     1.1180 h1         1 7RM       0.057700
     35 H9           4.8550     5.5750    -1.2160 h2         1 7RM       0.116700
     36 H10          1.2060     4.6610    -0.8380 h5         1 7RM       0.083800
     37 H11          4.2100     9.8490    -3.3930 h5         1 7RM       0.063100
     38 H12          1.6810    -0.0390     2.0330 hn         1 7RM       0.343500
     39 H13         -0.2400     9.5220    -4.3850 hn         1 7RM       0.450800
     40 H14         -0.7880     8.0700    -3.6120 hn         1 7RM       0.450800
     41 H15          4.8840     7.8300     1.2710 ho         1 7RM       0.410000
     42 H16          5.8240     5.2280     3.1410 ho         1 7RM       0.407000
@<TRIPOS>BOND
     1     1     2 1   
     2    19     2 2   
     3    21    26 2   
     4     2    13 1   
     5    13    26 1   
     6    18    12 1   
     7    26    20 2   
     8    26    22 1   
     9    15     8 2   
    10    15     9 1   
    11     8    14 1   
    12    12     9 ar  
    13    12    17 ar  
    14     9    10 ar  
    15    22     3 1   
    16    14    10 1   
    17    14     7 1   
    18    17    11 ar  
    19    23     7 1   
    20    23     4 1   
    21    10    16 ar  
    22     3     4 1   
    23     7     6 1   
    24    11    16 ar  
    25     4     5 1   
    26     6     5 1   
    27     6    24 1   
    28     5    25 1   
    29     1    27 1   
    30     1    28 1   
    31     1    29 1   
    32     3    30 1   
    33     3    31 1   
    34     4    32 1   
    35     5    33 1   
    36     6    34 1   
    37     7    35 1   
    38     8    36 1   
    39    11    37 1   
    40    13    38 1   
    41    18    39 1   
    42    18    40 1   
    43    24    41 1   
    44    25    42 1   
@<TRIPOS>SUBSTRUCTURE
     1 7RM         1 TEMP              0 ****  ****    0 ROOT
