@<TRIPOS>MOLECULE
7RM
   42    44     1     0     0
SMALL
bcc


@<TRIPOS>ATOM
      1 C01          0.0000     0.0000     0.0000 c3         1 7RM      -0.067100
      2 C02          1.5080     0.0000     0.0000 c          1 7RM       0.637100
      3 C09          4.1370     2.4450     1.4200 c3         1 7RM       0.253400
      4 C10          4.6180     3.7080     0.7020 c3         1 7RM       0.156100
      5 C11          4.5820     4.9190     1.6610 c3         1 7RM       0.133100
      6 C12          4.1330     6.0940     0.7650 c3         1 7RM       0.124100
      7 C13          3.9520     5.4550    -0.6300 c3         1 7RM       0.152800
      8 C16          1.5330     5.5640    -1.3400 cc         1 7RM       0.248700
      9 C18          1.5020     7.3760    -2.5310 ca         1 7RM      -0.246200
     10 C19          2.8150     7.2060    -2.0620 ca         1 7RM       0.276800
     11 C21          3.4330     9.1370    -3.1440 ca         1 7RM       0.693900
     12 C23          1.2220     8.4970    -3.3310 ca         1 7RM       0.592200
     13 N04          2.1810     0.0000     1.1670 ns         1 7RM      -0.351300
     14 N15          2.8060     6.0520    -1.3200 na         1 7RM       0.203000
     15 N17          0.7700     6.3410    -2.0520 nd         1 7RM      -0.496100
     16 N20          3.7390     8.1020    -2.3910 nb         1 7RM      -0.677000
     17 N22          2.2120     9.3400    -3.6070 nb         1 7RM      -0.745000
     18 N24         -0.0520     8.7160    -3.8220 nv         1 7RM      -0.479500
     19 O03          2.1150     0.0010    -1.0500 o          1 7RM      -0.576100
     20 O06          4.2380     0.0360     2.5310 o          1 7RM      -0.584800
     21 O07          4.2390    -1.0210     0.2650 o          1 7RM      -0.584800
     22 O08          4.2880     1.3180     0.5540 os         1 7RM      -0.435500
     23 O14          3.7100     4.0560    -0.3670 os         1 7RM      -0.390600
     24 O25          5.1420     7.1060     0.7250 oh         1 7RM      -0.536800
     25 O26          5.8800     5.1680     2.2010 oh         1 7RM      -0.545800
     26 S05          3.8370     0.0010     1.1680 s6         1 7RM       1.364100
     27 H1          -0.3610     0.0820    -1.0180 hc         1 7RM       0.026367
     28 H2          -0.3610    -0.9230     0.4380 hc         1 7RM       0.026367
     29 H3          -0.3610     0.8410     0.5800 hc         1 7RM       0.026367
     30 H4           4.7260     2.2930     2.3160 h1         1 7RM       0.017700
     31 H5           3.0930     2.5580     1.6870 h1         1 7RM       0.017700
     32 H6           5.6190     3.5680     0.3120 h1         1 7RM       0.061700
     33 H7           3.8610     4.7520     2.4520 h1         1 7RM       0.009700
     34 H8           3.1940     6.5010     1.1180 h1         1 7RM       0.017700
     35 H9           4.8550     5.5750    -1.2160 h2         1 7RM       0.073700
     36 H10          1.2060     4.6610    -0.8380 h5         1 7RM       0.035800
     37 H11          4.2100     9.8490    -3.3930 h5         1 7RM      -0.003900
     38 H12          1.6810    -0.0390     2.0330 hn         1 7RM       0.233500
     39 H13         -0.2400     9.5220    -4.3850 hn         1 7RM       0.276300
     40 H14         -0.7880     8.0700    -3.6120 hn         1 7RM       0.276300
     41 H15          4.8840     7.8300     1.2710 ho         1 7RM       0.393000
     42 H16          5.8240     5.2280     3.1410 ho         1 7RM       0.390000
@<TRIPOS>BOND
     1     1     2 1   
     2     1    27 1   
     3     1    28 1   
     4     1    29 1   
     5     2    13 1   
     6     2    19 2   
     7     3     4 1   
     8     3    22 1   
     9     3    30 1   
    10     3    31 1   
    11     4     5 1   
    12     4    23 1   
    13     4    32 1   
    14     5     6 1   
    15     5    25 1   
    16     5    33 1   
    17     6     7 1   
    18     6    24 1   
    19     6    34 1   
    20     7    14 1   
    21     7    23 1   
    22     7    35 1   
    23     8    14 1   
    24     8    15 2   
    25     8    36 1   
    26     9    10 ar  
    27     9    12 ar  
    28     9    15 1   
    29    10    14 1   
    30    10    16 ar  
    31    11    16 ar  
    32    11    17 ar  
    33    11    37 1   
    34    12    17 ar  
    35    12    18 1   
    36    13    26 1   
    37    13    38 1   
    38    18    39 1   
    39    18    40 1   
    40    20    26 2   
    41    21    26 2   
    42    22    26 1   
    43    24    41 1   
    44    25    42 1   
@<TRIPOS>SUBSTRUCTURE
     1 7RM         1 TEMP              0 ****  ****    0 ROOT
