@<TRIPOS>MOLECULE
molecule
   62    65     1     0     0
SMALL
bcc


@<TRIPOS>ATOM
      1 O2           0.0000     0.0000     0.0000 o          1 7RO      -0.524000
      2 C20          1.2150     0.0000     0.0000 c          1 7RO       0.775100
      3 O1           1.8880     0.0000     1.1660 os         1 7RO      -0.412900
      4 C21          1.0960     0.0020     2.3830 c3         1 7RO       0.165800
      5 C24          0.2130    -1.2460     2.4190 c3         1 7RO      -0.113433
      6 C23          2.0280     0.0030     3.5970 c3         1 7RO      -0.113433
      7 C22          0.2140     1.2510     2.4170 c3         1 7RO      -0.113433
      8 N5           1.8890    -0.0070    -1.1670 n          1 7RO      -0.231200
      9 C4           2.2880     1.1180    -1.8640 cc         1 7RO       0.108400
     10 C3           2.0420     2.5150    -1.4410 cc         1 7RO      -0.273100
     11 C1           1.3670     2.9270    -0.2740 cc         1 7RO       0.339200
     12 N1           1.3530     4.2330    -0.2520 nd         1 7RO      -0.504800
     13 C2           2.4310     3.6430    -2.1100 cd         1 7RO      -0.081300
     14 N            2.0100     4.7060    -1.3940 na         1 7RO       0.072400
     15 C            2.2120     6.1120    -1.7480 c3         1 7RO       0.061600
     16 C19          2.2910    -1.1390    -1.8460 ca         1 7RO       0.091600
     17 C6           2.9610    -0.7160    -3.0130 ca         1 7RO      -0.254100
     18 C5           2.9400     0.7480    -2.9900 cd         1 7RO      -0.172200
     19 C18          2.1700    -2.5030    -1.6140 ca         1 7RO      -0.318300
     20 C8           2.7110    -3.3880    -2.5360 ca         1 7RO       0.699200
     21 N2           3.3350    -2.9540    -3.6240 nb         1 7RO      -0.757000
     22 C7           3.4740    -1.6710    -3.8870 ca         1 7RO       0.503200
     23 N3           2.5960    -4.7580    -2.3140 nu         1 7RO      -0.763300
     24 C9           3.0180    -5.6590    -3.2890 ca         1 7RO       0.198600
     25 C17          3.0620    -5.2670    -4.6230 ca         1 7RO      -0.150000
     26 C16          3.4790    -6.1540    -5.5890 ca         1 7RO      -0.097000
     27 C12          3.8570    -7.4510    -5.2290 ca         1 7RO      -0.172600
     28 C11          3.8100    -7.8420    -3.8880 ca         1 7RO      -0.041000
     29 C10          3.3980    -6.9480    -2.9250 ca         1 7RO      -0.037600
     30 Cl           3.3470    -7.4310    -1.2580 cl         1 7RO      -0.112400
     31 C13          4.3020    -8.4050    -6.2620 c          1 7RO       0.680700
     32 O            5.1170    -9.2650    -5.9860 o          1 7RO      -0.604100
     33 N4           3.8070    -8.3240    -7.5140 n          1 7RO      -0.495800
     34 C15          4.3370    -9.1900    -8.5690 c3         1 7RO       0.098300
     35 C14          2.7380    -7.3680    -7.8180 c3         1 7RO       0.098300
     36 H241        -0.6560    -1.0920     1.7920 hc         1 7RO       0.055033
     37 H242        -0.1050    -1.4340     3.4380 hc         1 7RO       0.055033
     38 H243         0.7750    -2.0970     2.0540 hc         1 7RO       0.055033
     39 H231         2.6090    -0.9110     3.6070 hc         1 7RO       0.055033
     40 H232         2.6960     0.8540     3.5390 hc         1 7RO       0.055033
     41 H233         1.4400     0.0670     4.5040 hc         1 7RO       0.055033
     42 H221        -0.4660     1.2360     1.5730 hc         1 7RO       0.055033
     43 H222        -0.3550     1.2680     3.3380 hc         1 7RO       0.055033
     44 H223         0.8380     2.1350     2.3620 hc         1 7RO       0.055033
     45 H5           3.3680     1.4100    -3.7340 ha         1 7RO       0.158000
     46 H1           0.9360     2.2730     0.4760 h4         1 7RO       0.061100
     47 H2           2.9720     3.6760    -3.0470 h4         1 7RO       0.177000
     48 HC1          1.8700     6.2820    -2.7610 h1         1 7RO       0.058033
     49 HC2          1.6510     6.7400    -1.0670 h1         1 7RO       0.058033
     50 HC3          3.2660     6.3550    -1.6770 h1         1 7RO       0.058033
     51 H18          1.6620    -2.8690    -0.7300 ha         1 7RO       0.142000
     52 H7           3.9910    -1.3580    -4.7860 h4         1 7RO       0.029100
     53 H3           2.1750    -5.0950    -1.4710 hn         1 7RO       0.466800
     54 H17          2.7690    -4.2620    -4.9020 ha         1 7RO       0.181000
     55 H16          3.5130    -5.8470    -6.6280 ha         1 7RO       0.148000
     56 H11          4.1040    -8.8460    -3.6060 ha         1 7RO       0.165000
     57 H151         5.4190    -9.1380    -8.5700 h1         1 7RO       0.042033
     58 H152         4.0250   -10.2120    -8.3890 h1         1 7RO       0.042033
     59 H153         3.9590    -8.8620    -9.5300 h1         1 7RO       0.042033
     60 H141         3.1720    -6.4020    -8.0470 h1         1 7RO       0.042033
     61 H142         2.0820    -7.2750    -6.9610 h1         1 7RO       0.042033
     62 H143         2.1700    -7.7210    -8.6710 h1         1 7RO       0.042033
@<TRIPOS>BOND
     1     1     2 2
     2     2     3 1
     3     2     8 1
     4     3     4 1
     5     4     5 1
     6     4     6 1
     7     4     7 1
     8     8     9 1
     9     8    16 1
    10     9    10 1
    11     9    18 2
    12    10    11 1
    13    10    13 2
    14    11    12 2
    15    12    14 1
    16    13    14 1
    17    14    15 1
    18    16    17 ar
    19    16    19 ar
    20    17    18 1
    21    17    22 ar
    22    19    20 ar
    23    20    21 ar
    24    20    23 1
    25    21    22 ar
    26    23    24 1
    27    24    25 ar
    28    24    29 ar
    29    25    26 ar
    30    26    27 ar
    31    27    28 ar
    32    27    31 1
    33    28    29 ar
    34    29    30 1
    35    31    32 2
    36    31    33 1
    37    33    34 1
    38    33    35 1
    39     5    36 1
    40     5    37 1
    41     5    38 1
    42     6    39 1
    43     6    40 1
    44     6    41 1
    45     7    42 1
    46     7    43 1
    47     7    44 1
    48    18    45 1
    49    11    46 1
    50    13    47 1
    51    15    48 1
    52    15    49 1
    53    15    50 1
    54    19    51 1
    55    22    52 1
    56    23    53 1
    57    25    54 1
    58    26    55 1
    59    28    56 1
    60    34    57 1
    61    34    58 1
    62    34    59 1
    63    35    60 1
    64    35    61 1
    65    35    62 1
@<TRIPOS>SUBSTRUCTURE
     1 7RO         1 TEMP              0 ****  ****    0 ROOT
