@<TRIPOS>MOLECULE
molecule
   33    35     1     0     0
SMALL
bcc


@<TRIPOS>ATOM
      1 C8           0.0000     0.0000     0.0000 cc         1 7RP       0.490700
      2 N9           1.3040     0.0000     0.0000 nd         1 7RP      -0.737700
      3 C4           1.7600     0.0000     1.2670 ca         1 7RP       0.600300
      4 C5           0.6280     0.0050     2.1070 ca         1 7RP      -0.298800
      5 N7          -0.4670    -0.0000     1.2690 na         1 7RP      -0.107300
      6 N3           2.9700     0.0000     1.8270 nb         1 7RP      -0.706000
      7 C2           3.0980     0.0000     3.1360 ca         1 7RP       0.631900
      8 N1           2.0580     0.0000     3.9480 nb         1 7RP      -0.780000
      9 C6           0.8190     0.0010     3.4790 ca         1 7RP       0.455200
     10 P           -5.2650     0.4100    -2.9370 p5         1 7RP       1.144900
     11 O1P         -6.4570     0.5440    -2.0730 o          1 7RP      -0.904833
     12 O2P         -5.1950     1.6580    -3.9520 o          1 7RP      -0.904833
     13 O3P         -5.3620    -0.9590    -3.7780 o          1 7RP      -0.904833
     14 O5'         -3.9390     0.3870    -2.0230 os         1 7RP      -0.526200
     15 C5'         -4.0590    -0.7360    -1.1490 c3         1 7RP       0.167400
     16 C4'         -2.8250    -0.8160    -0.2490 c3         1 7RP       0.106100
     17 O4'         -2.7200     0.3730     0.5680 os         1 7RP      -0.339600
     18 C3'         -2.9620    -1.9760     0.7620 c3         1 7RP       0.090100
     19 O3'         -2.2520    -3.1260     0.3020 oh         1 7RP      -0.578800
     20 C2'         -2.3240    -1.4270     2.0560 c3         1 7RP       0.074100
     21 O2'         -1.2010    -2.2240     2.4390 oh         1 7RP      -0.575800
     22 C1'         -1.8730     0.0010     1.6760 c3         1 7RP       0.234800
     23 H8          -0.0500     0.4260    -0.9950 h5         1 7RP       0.150800
     24 H2           4.0950    -0.0050     3.5590 h5         1 7RP       0.038100
     25 H6           0.2820     0.2060     4.3960 h4         1 7RP       0.029100
     26 H5'1        -4.1180    -1.6450    -1.7350 h1         1 7RP       0.055200
     27 H5'2        -4.9560    -0.6330    -0.5510 h1         1 7RP       0.055200
     28 H4'         -1.9280    -0.9420    -0.8430 h1         1 7RP       0.073700
     29 H3'         -4.0070    -2.2100     0.9280 h1         1 7RP       0.059700
     30 HO'3        -2.8260    -3.8740     0.3100 ho         1 7RP       0.393000
     31 H2'         -3.0590    -1.3900     2.8520 h1         1 7RP       0.040700
     32 HO'2        -1.4560    -2.8160     3.1270 ho         1 7RP       0.389000
     33 H1'         -2.0300     0.6760     2.5080 h2         1 7RP       0.084700
@<TRIPOS>BOND
     1     1     2 2   
     2     1     5 1   
     3     1    23 1   
     4     2     3 1   
     5     3     4 ar  
     6     3     6 ar  
     7     4     5 1   
     8     4     9 ar  
     9     5    22 1   
    10     6     7 ar  
    11     7     8 ar  
    12     7    24 1   
    13     8     9 ar  
    14     9    25 1   
    15    10    11 1   
    16    10    12 1   
    17    10    13 1   
    18    10    14 1   
    19    14    15 1   
    20    15    16 1   
    21    15    26 1   
    22    15    27 1   
    23    16    17 1   
    24    16    18 1   
    25    16    28 1   
    26    17    22 1   
    27    18    19 1   
    28    18    20 1   
    29    18    29 1   
    30    19    30 1   
    31    20    21 1   
    32    20    22 1   
    33    20    31 1   
    34    21    32 1   
    35    22    33 1   
@<TRIPOS>SUBSTRUCTURE
     1 7RP         1 TEMP              0 ****  ****    0 ROOT
