@<TRIPOS>MOLECULE
7RP
   33    35     1     0     0
SMALL
bcc


@<TRIPOS>ATOM
      1 C8          0.4160   -0.9470    0.3320 cc        1 7RP      0.474700
      2 N9          1.7630   -0.8730    0.4040 nd        1 7RP     -0.679700
      3 C4          2.0320   -0.3500    1.6890 ca        1 7RP      0.539300
      4 C5          0.7410   -0.1160    2.3790 ca        1 7RP     -0.301800
      5 N7         -0.2510   -0.5190    1.4910 na        1 7RP     -0.132300
      6 N3          3.2150   -0.0690    2.3040 nb        1 7RP     -0.657000
      7 C2          3.0860    0.4280    3.5540 ca        1 7RP      0.580900
      8 N1          1.9490    0.6820    4.2730 nb        1 7RP     -0.724000
      9 C6          0.7750    0.4090    3.6830 ca        1 7RP      0.436200
     10 P          -5.5570   -0.9020   -2.2510 p5        1 7RP      1.332900
     11 O1P        -6.3270   -1.0300   -0.9660 o         1 7RP     -0.926167
     12 O2P        -6.2870   -0.5110   -3.4950 o         1 7RP     -0.926167
     13 O3P        -4.4660   -1.9510   -2.3650 o         1 7RP     -0.926167
     14 O5'        -4.5430    0.4780   -1.9150 os        1 7RP     -0.561200
     15 C5'        -4.1830    0.6670   -0.6110 c3        1 7RP      0.225400
     16 C4'        -2.8080    0.0120   -0.3180 c3        1 7RP      0.053100
     17 O4'        -2.2650    0.5770    0.9050 os        1 7RP     -0.424600
     18 C3'        -2.9420   -1.5100   -0.1080 c3        1 7RP      0.088100
     19 O3'        -2.1010   -2.2130   -0.9990 oh        1 7RP     -0.701800
     20 C2'        -2.4660   -1.7620    1.3340 c3        1 7RP      0.111100
     21 O2'        -1.7160   -2.9320    1.5360 oh        1 7RP     -0.610800
     22 C1'        -1.6930   -0.4470    1.7020 c3        1 7RP      0.211800
     23 H8         -0.1680   -1.3130   -0.5400 h5        1 7RP      0.126800
     24 H2          4.0360    0.6650    4.0730 h5        1 7RP      0.027100
     25 H6         -0.1440    0.6150    4.2580 h4        1 7RP      0.022100
     26 H5'1       -4.9510    0.2380    0.0940 h1        1 7RP      0.010200
     27 H5'2       -4.0650    1.7720   -0.4090 h1        1 7RP      0.010200
     28 H4'        -2.0820    0.2390   -1.1410 h1        1 7RP      0.057700
     29 H3'        -4.0250   -1.8170   -0.2910 h1        1 7RP      0.175700
     30 HO'3       -2.6590   -2.3750   -1.7990 ho        1 7RP      0.513000
     31 H2'        -3.3450   -1.8330    2.0310 h1        1 7RP      0.080700
     32 HO'2       -1.3720   -3.2150    0.6750 ho        1 7RP      0.429000
     33 H1'        -1.8510   -0.1420    2.7760 h2        1 7RP      0.067700
@<TRIPOS>BOND
     1    1    2 2   
     2    1    5 1   
     3    1   23 1   
     4    2    3 1   
     5    3    4 ar  
     6    3    6 ar  
     7    4    5 1   
     8    4    9 ar  
     9    5   22 1   
    10    6    7 ar  
    11    7    8 ar  
    12    7   24 1   
    13    8    9 ar  
    14    9   25 1   
    15   10   11 1   
    16   10   12 1   
    17   10   13 1   
    18   10   14 1   
    19   14   15 1   
    20   15   16 1   
    21   15   26 1   
    22   15   27 1   
    23   16   17 1   
    24   16   18 1   
    25   16   28 1   
    26   17   22 1   
    27   18   19 1   
    28   18   20 1   
    29   18   29 1   
    30   19   30 1   
    31   20   21 1   
    32   20   22 1   
    33   20   31 1   
    34   21   32 1   
    35   22   33 1   
@<TRIPOS>SUBSTRUCTURE
     1 7RP         1 TEMP              0 ****  ****    0 ROOT
