@<TRIPOS>MOLECULE
molecule
   51    53     1     0     0
SMALL
bcc


@<TRIPOS>ATOM
      1 C10          0.0000     0.0000     0.0000 c3         1 7RS       0.160800
      2 N12          0.0160     1.2430     2.1100 n7         1 7RS      -0.823200
      3 C13          1.4860     1.2430     2.1100 c3         1 7RS       0.158800
      4 C20          7.4130    -2.6520     5.5500 ca         1 7RS       0.217600
      5 C21          8.7110    -3.1210     5.4020 ca         1 7RS      -0.239000
      6 C22          9.4360    -3.5080     6.5140 ca         1 7RS       0.145900
      7 C24          7.5720    -2.9610     7.9230 ca         1 7RS      -0.095000
      8 C02          6.2130    -0.6680    -1.3000 ca         1 7RS      -0.115300
      9 C03          5.7260    -1.3410    -0.1870 ca         1 7RS       0.047600
     10 C04          4.3570    -1.4940    -0.0150 ca         1 7RS      -0.123000
     11 C05          3.4840    -0.9740    -0.9500 ca         1 7RS      -0.067300
     12 C06          3.9710    -0.3040    -2.0570 ca         1 7RS      -0.117000
     13 C07          5.3340    -0.1460    -2.2280 ca         1 7RS      -0.112000
     14 N09          1.4700     0.0000     0.0000 n3         1 7RS      -0.729600
     15 C11         -0.5070     1.2430     0.7360 c3         1 7RS       0.158800
     16 C14          1.9930     0.0000     1.3730 c3         1 7RS       0.160800
     17 C16          6.2800    -1.8770     2.0640 c          1 7RS       0.653100
     18 O17          5.1790    -1.5090     2.4110 o          1 7RS      -0.597100
     19 C18          7.2750    -2.3490     3.0930 c3         1 7RS       0.160800
     20 N19          6.6750    -2.2660     4.4270 nu         1 7RS      -0.812600
     21 C23          8.8670    -3.4280     7.7750 ca         1 7RS       0.039900
     22 C25          6.8450    -2.5730     6.8150 ca         1 7RS      -0.193000
     23 F26          9.5750    -3.8060     8.8610 f          1 7RS      -0.133900
     24 F27         10.7000    -3.9640     6.3710 f          1 7RS      -0.128900
     25 H1          -0.3600    -0.8890     0.5030 h1         1 7RS       0.045700
     26 H2          -0.3600     0.0150    -1.0220 h1         1 7RS       0.045700
     27 H3          -0.3180     2.0520     2.5940 hn         1 7RS       0.351800
     28 H5           1.8460     2.1320     1.6070 h1         1 7RS       0.038200
     29 H6           1.8460     1.2280     3.1310 h1         1 7RS       0.038200
     30 H7           9.1560    -3.1830     4.4160 ha         1 7RS       0.146000
     31 H8           7.1290    -2.8990     8.9100 ha         1 7RS       0.152000
     32 H9           7.8830     0.1340    -2.3490 hc         1 7RS       0.042700
     33 H10          8.1270    -0.0460    -0.6060 hc         1 7RS       0.042700
     34 H11          8.1530    -1.4700    -1.6550 hc         1 7RS       0.042700
     35 H12          3.9740    -2.0180     0.8520 ha         1 7RS       0.165000
     36 H13          3.2830     0.1050    -2.7880 ha         1 7RS       0.137000
     37 H14          5.7130     0.3800    -3.0960 ha         1 7RS       0.134000
     38 H15          1.8000    -2.0570    -0.2240 h1         1 7RS       0.040700
     39 H16          1.5130    -1.1780    -1.7320 h1         1 7RS       0.040700
     40 H18         -1.5900     1.2280     0.7630 h1         1 7RS       0.038200
     41 H19         -0.1650     2.1320     0.2210 h1         1 7RS       0.038200
     42 H20          1.6510    -0.8890     1.8890 h1         1 7RS       0.045700
     43 H21          3.0760     0.0150     1.3460 h1         1 7RS       0.045700
     44 H22          7.5370    -2.1340     0.4780 hn         1 7RS       0.326500
     45 H23          8.1590    -1.7230     3.0540 h1         1 7RS       0.060200
     46 H24          7.5510    -3.3760     2.8840 h1         1 7RS       0.060200
     47 H25          5.7460    -1.9120     4.5360 hn         1 7RS       0.468800
     48 H26          5.8320    -2.2070     6.9320 ha         1 7RS       0.144000
     49 C08          1.9970    -1.1380    -0.7630 c3         1 7RS       0.211100
     50 N15          6.6140    -1.8670     0.7580 ns         1 7RS      -0.467100
     51 C01          7.6980    -0.5010    -1.4910 c3         1 7RS      -0.048800
@<TRIPOS>BOND
     1     2     3 1   
     2     2    15 1   
     3     3    16 1   
     4    15     1 1   
     5    16    14 1   
     6     1    14 1   
     7    14    49 1   
     8    49    11 1   
     9    11    10 ar  
    10    11    12 ar  
    11    10     9 ar  
    12    12    13 ar  
    13     9    50 1   
    14     9     8 ar  
    15    50    17 1   
    16    13     8 ar  
    17     8    51 1   
    18    17    18 2   
    19    17    19 1   
    20    19    20 1   
    21    20     4 1   
    22     5     4 ar  
    23     5     6 ar  
    24     4    22 ar  
    25     6    24 1   
    26     6    21 ar  
    27    22     7 ar  
    28    21     7 ar  
    29    21    23 1   
    30     1    25 1   
    31     1    26 1   
    32     2    27 1   
    33     3    28 1   
    34     3    29 1   
    35     5    30 1   
    36     7    31 1   
    37    51    32 1   
    38    51    33 1   
    39    51    34 1   
    40    10    35 1   
    41    12    36 1   
    42    13    37 1   
    43    49    38 1   
    44    49    39 1   
    45    15    40 1   
    46    15    41 1   
    47    16    42 1   
    48    16    43 1   
    49    50    44 1   
    50    19    45 1   
    51    19    46 1   
    52    20    47 1   
    53    22    48 1   
@<TRIPOS>SUBSTRUCTURE
     1 7RS         1 TEMP              0 ****  ****    0 ROOT
