@<TRIPOS>MOLECULE
molecule
   67    71     1     0     0
SMALL
bcc


@<TRIPOS>ATOM
      1 C10          0.0000     0.0000     0.0000 c3         1 7RV      -0.129400
      2 C13          3.9600     2.4350    -1.5380 c3         1 7RV       0.166800
      3 C15          1.9800     3.6430    -0.8470 c3         1 7RV       0.166800
      4 C17          3.9170     4.7960    -1.5580 ca         1 7RV       0.103600
      5 C20          4.8320     7.0560    -2.8650 ca         1 7RV      -0.153000
      6 C21          4.0110     7.1840    -1.7600 ca         1 7RV      -0.104500
      7 C22          3.5470     6.0580    -1.1090 ca         1 7RV      -0.166500
      8 C24          0.9090    -1.0400    -4.8870 ca         1 7RV      -0.054000
      9 C26          0.8570    -2.1400    -7.0100 ca         1 7RV       0.457200
     10 C28          1.8010    -3.2580    -5.2240 ca         1 7RV       0.564600
     11 C02          1.9210    -2.2350    -2.9430 c          1 7RV       0.671700
     12 N03          1.6640    -1.1900    -2.1330 ns         1 7RV      -0.573900
     13 C04          2.0440    -1.2490    -0.7180 c3         1 7RV       0.119000
     14 C05          1.5330     0.0000     0.0000 c3         1 7RV       0.159200
     15 C06          2.0320     0.0000     1.4480 c3         1 7RV      -0.129400
     16 C07          1.4510    -1.2140     2.1800 c3         1 7RV       0.134900
     17 O08          0.0240    -1.1690     2.1150 os         1 7RV      -0.419600
     18 C09         -0.5020    -1.2120     0.7870 c3         1 7RV       0.134900
     19 N11          2.0230     1.2000    -0.6910 n3         1 7RV      -0.730600
     20 C12          3.4920     1.2130    -0.7450 c3         1 7RV       0.151800
     21 N14          3.4490     3.6550    -0.9010 nh         1 7RV      -0.600000
     22 C16          1.5130     2.4210    -0.0530 c3         1 7RV       0.151800
     23 C18          4.7460     4.6710    -2.6640 ca         1 7RV      -0.166500
     24 C19          5.2030     5.8020    -3.3140 ca         1 7RV      -0.104500
     25 C23          1.5390    -2.1760    -4.3660 ca         1 7RV      -0.275900
     26 C25          0.5660    -1.0350    -6.2280 ca         1 7RV      -0.285300
     27 N27          1.4550    -3.1980    -6.5020 nb         1 7RV      -0.699000
     28 C30          2.5100    -5.7390    -6.0200 ca         1 7RV      -0.044100
     29 C31          3.5830    -5.7990    -6.9000 ca         1 7RV      -0.067000
     30 C32          3.5150    -6.6130    -8.0140 ca         1 7RV      -0.145000
     31 C33          2.3800    -7.3660    -8.2530 ca         1 7RV      -0.102000
     32 C34          1.3100    -7.3080    -7.3790 ca         1 7RV      -0.145000
     33 C35          1.3750    -6.5020    -6.2600 ca         1 7RV      -0.067000
     34 H1          -0.3610     0.9080     0.4670 hc         1 7RV       0.059950
     35 H2          -0.3610    -0.0570    -1.0200 hc         1 7RV       0.059950
     36 H3           5.0430     2.4620    -1.5530 h1         1 7RV       0.050200
     37 H4           3.5810     2.3720    -2.5510 h1         1 7RV       0.050200
     38 H5           1.6300     4.5450    -0.3600 h1         1 7RV       0.050200
     39 H6           1.5840     3.5920    -1.8540 h1         1 7RV       0.050200
     40 H7           5.1930     7.9410    -3.3750 ha         1 7RV       0.129000
     41 H8           3.7230     8.1680    -1.4110 ha         1 7RV       0.129500
     42 H9           2.9040     6.1580    -0.2430 ha         1 7RV       0.135500
     43 H10          0.6920    -0.1870    -4.2560 ha         1 7RV       0.137000
     44 H11          0.5890    -2.1330    -8.0600 h4         1 7RV       0.026100
     45 H12          1.2020    -0.3790    -2.4930 hn         1 7RV       0.329500
     46 H13          3.1230    -1.2970    -0.6360 h1         1 7RV       0.059200
     47 H14          1.6080    -2.1310    -0.2640 h1         1 7RV       0.059200
     48 H15          3.1130    -0.0570     1.4580 hc         1 7RV       0.059950
     49 H16          1.7070     0.9080     1.9420 hc         1 7RV       0.059950
     50 H17          1.8040    -2.1220     1.7060 h1         1 7RV       0.053450
     51 H18          1.7660    -1.1940     3.2160 h1         1 7RV       0.053450
     52 H19         -0.1720    -2.1210     0.2990 h1         1 7RV       0.053450
     53 H20         -1.5850    -1.1910     0.8280 h1         1 7RV       0.053450
     54 H22          3.8890     1.2640     0.2620 h1         1 7RV       0.050450
     55 H23          3.8430     0.3110    -1.2320 h1         1 7RV       0.050450
     56 H24          0.4300     2.3940    -0.0390 h1         1 7RV       0.050450
     57 H25          1.8910     2.4840     0.9600 h1         1 7RV       0.050450
     58 H26          5.0360     3.6890    -3.0160 ha         1 7RV       0.135500
     59 H27          5.8480     5.7060    -4.1790 ha         1 7RV       0.129500
     60 H28          0.0750    -0.1730    -6.6630 ha         1 7RV       0.140000
     61 H29          4.4720    -5.2090    -6.7130 ha         1 7RV       0.138000
     62 H30          4.3510    -6.6600    -8.7000 ha         1 7RV       0.130000
     63 H31          2.3280    -8.0010    -9.1290 ha         1 7RV       0.127000
     64 H32          0.4240    -7.9010    -7.5690 ha         1 7RV       0.130000
     65 H33          0.5360    -6.4560    -5.5750 ha         1 7RV       0.138000
     66 S29          2.5930    -4.7020    -4.5970 ss         1 7RV      -0.147200
     67 O01          2.4680    -3.2270    -2.5020 o          1 7RV      -0.601100
@<TRIPOS>BOND
     1    31    30 ar  
     2    31    32 ar  
     3    30    29 ar  
     4    32    33 ar  
     5    29    28 ar  
     6    33    28 ar  
     7    28    66 1   
     8    66    10 1   
     9    27    10 ar  
    10    27     9 ar  
    11    10    25 ar  
    12     9    26 ar  
    13    25    11 1   
    14    25     8 ar  
    15    67    11 2   
    16    11    12 1   
    17    26     8 ar  
    18    12    13 1   
    19    13    14 1   
    20     2    20 1   
    21     2    21 1   
    22    20    19 1   
    23    15    14 1   
    24    15    16 1   
    25    19    14 1   
    26    19    22 1   
    27    14     1 1   
    28    23    24 ar  
    29    23     4 ar  
    30    24     5 ar  
    31    21     3 1   
    32    21     4 1   
    33     3    22 1   
    34     4     7 ar  
    35    16    17 1   
    36     1    18 1   
    37     5     6 ar  
    38     7     6 ar  
    39    17    18 1   
    40     1    34 1   
    41     1    35 1   
    42     2    36 1   
    43     2    37 1   
    44     3    38 1   
    45     3    39 1   
    46     5    40 1   
    47     6    41 1   
    48     7    42 1   
    49     8    43 1   
    50     9    44 1   
    51    12    45 1   
    52    13    46 1   
    53    13    47 1   
    54    15    48 1   
    55    15    49 1   
    56    16    50 1   
    57    16    51 1   
    58    18    52 1   
    59    18    53 1   
    60    20    54 1   
    61    20    55 1   
    62    22    56 1   
    63    22    57 1   
    64    23    58 1   
    65    24    59 1   
    66    26    60 1   
    67    29    61 1   
    68    30    62 1   
    69    31    63 1   
    70    32    64 1   
    71    33    65 1   
@<TRIPOS>SUBSTRUCTURE
     1 7RV         1 TEMP              0 ****  ****    0 ROOT
