@<TRIPOS>MOLECULE
7RV
   67    71     1     0     0
SMALL
bcc


@<TRIPOS>ATOM
      1 C10          0.0000     0.0000     0.0000 c3         1 7RV      -0.091400
      2 C13          3.9600     2.4350    -1.5380 c3         1 7RV       0.139300
      3 C15          1.9800     3.6430    -0.8470 c3         1 7RV       0.139300
      4 C17          3.9170     4.7960    -1.5580 ca         1 7RV       0.021600
      5 C20          4.8320     7.0560    -2.8650 ca         1 7RV      -0.127000
      6 C21          4.0110     7.1840    -1.7600 ca         1 7RV      -0.073000
      7 C22          3.5470     6.0580    -1.1090 ca         1 7RV      -0.148000
      8 C24          0.9090    -1.0400    -4.8870 ca         1 7RV      -0.040000
      9 C26          0.8570    -2.1400    -7.0100 ca         1 7RV       0.441200
     10 C28          1.8010    -3.2580    -5.2240 ca         1 7RV       0.578600
     11 C02          1.9210    -2.2350    -2.9430 c          1 7RV       0.587700
     12 N03          1.6640    -1.1900    -2.1330 ns         1 7RV      -0.194900
     13 C04          2.0440    -1.2490    -0.7180 c3         1 7RV       0.033000
     14 C05          1.5330     0.0000     0.0000 c3         1 7RV       0.107200
     15 C06          2.0320     0.0000     1.4480 c3         1 7RV      -0.091400
     16 C07          1.4510    -1.2140     2.1800 c3         1 7RV       0.209900
     17 O08          0.0240    -1.1690     2.1150 os         1 7RV      -0.404600
     18 C09         -0.5020    -1.2120     0.7870 c3         1 7RV       0.209900
     19 N11          2.0230     1.2000    -0.6910 n3         1 7RV      -0.543600
     20 C12          3.4920     1.2130    -0.7450 c3         1 7RV       0.130800
     21 N14          3.4490     3.6550    -0.9010 nh         1 7RV      -0.365000
     22 C16          1.5130     2.4210    -0.0530 c3         1 7RV       0.130800
     23 C18          4.7460     4.6710    -2.6640 ca         1 7RV      -0.148000
     24 C19          5.2030     5.8020    -3.3140 ca         1 7RV      -0.073000
     25 C23          1.5390    -2.1760    -4.3660 ca         1 7RV      -0.260900
     26 C25          0.5660    -1.0350    -6.2280 ca         1 7RV      -0.246300
     27 N27          1.4550    -3.1980    -6.5020 nb         1 7RV      -0.595000
     28 C30          2.5100    -5.7390    -6.0200 ca         1 7RV      -0.003100
     29 C31          3.5830    -5.7990    -6.9000 ca         1 7RV      -0.034000
     30 C32          3.5150    -6.6130    -8.0140 ca         1 7RV      -0.122500
     31 C33          2.3800    -7.3660    -8.2530 ca         1 7RV      -0.071000
     32 C34          1.3100    -7.3080    -7.3790 ca         1 7RV      -0.122500
     33 C35          1.3750    -6.5020    -6.2600 ca         1 7RV      -0.034000
     34 H1          -0.3610     0.9080     0.4670 hc         1 7RV       0.036950
     35 H2          -0.3610    -0.0570    -1.0200 hc         1 7RV       0.036950
     36 H3           5.0430     2.4620    -1.5530 h1         1 7RV       0.024450
     37 H4           3.5810     2.3720    -2.5510 h1         1 7RV       0.024450
     38 H5           1.6300     4.5450    -0.3600 h1         1 7RV       0.024450
     39 H6           1.5840     3.5920    -1.8540 h1         1 7RV       0.024450
     40 H7           5.1930     7.9410    -3.3750 ha         1 7RV       0.103000
     41 H8           3.7230     8.1680    -1.4110 ha         1 7RV       0.101500
     42 H9           2.9040     6.1580    -0.2430 ha         1 7RV       0.117500
     43 H10          0.6920    -0.1870    -4.2560 ha         1 7RV       0.111000
     44 H11          0.5890    -2.1330    -8.0600 h4         1 7RV      -0.019900
     45 H12          1.2020    -0.3790    -2.4930 hn         1 7RV       0.194500
     46 H13          3.1230    -1.2970    -0.6360 h1         1 7RV       0.042200
     47 H14          1.6080    -2.1310    -0.2640 h1         1 7RV       0.042200
     48 H15          3.1130    -0.0570     1.4580 hc         1 7RV       0.036950
     49 H16          1.7070     0.9080     1.9420 hc         1 7RV       0.036950
     50 H17          1.8040    -2.1220     1.7060 h1         1 7RV       0.015450
     51 H18          1.7660    -1.1940     3.2160 h1         1 7RV       0.015450
     52 H19         -0.1720    -2.1210     0.2990 h1         1 7RV       0.015450
     53 H20         -1.5850    -1.1910     0.8280 h1         1 7RV       0.015450
     54 H22          3.8890     1.2640     0.2620 h1         1 7RV       0.028450
     55 H23          3.8430     0.3110    -1.2320 h1         1 7RV       0.028450
     56 H24          0.4300     2.3940    -0.0390 h1         1 7RV       0.028450
     57 H25          1.8910     2.4840     0.9600 h1         1 7RV       0.028450
     58 H26          5.0360     3.6890    -3.0160 ha         1 7RV       0.117500
     59 H27          5.8480     5.7060    -4.1790 ha         1 7RV       0.101500
     60 H28          0.0750    -0.1730    -6.6630 ha         1 7RV       0.116000
     61 H29          4.4720    -5.2090    -6.7130 ha         1 7RV       0.112500
     62 H30          4.3510    -6.6600    -8.7000 ha         1 7RV       0.104000
     63 H31          2.3280    -8.0010    -9.1290 ha         1 7RV       0.099000
     64 H32          0.4240    -7.9010    -7.5690 ha         1 7RV       0.104000
     65 H33          0.5360    -6.4560    -5.5750 ha         1 7RV       0.112500
     66 S29          2.5930    -4.7020    -4.5970 ss         1 7RV      -0.302200
     67 O01          2.4680    -3.2270    -2.5020 o          1 7RV      -0.620100
@<TRIPOS>BOND
     1     1    14 1   
     2     1    18 1   
     3     1    34 1   
     4     1    35 1   
     5     2    20 1   
     6     2    21 1   
     7     2    36 1   
     8     2    37 1   
     9     3    21 1   
    10     3    22 1   
    11     3    38 1   
    12     3    39 1   
    13     4     7 ar  
    14     4    21 1   
    15     4    23 ar  
    16     5     6 ar  
    17     5    24 ar  
    18     5    40 1   
    19     6     7 ar  
    20     6    41 1   
    21     7    42 1   
    22     8    25 ar  
    23     8    26 ar  
    24     8    43 1   
    25     9    26 ar  
    26     9    27 ar  
    27     9    44 1   
    28    10    25 ar  
    29    10    27 ar  
    30    10    66 1   
    31    11    12 1   
    32    11    25 1   
    33    11    67 2   
    34    12    13 1   
    35    12    45 1   
    36    13    14 1   
    37    13    46 1   
    38    13    47 1   
    39    14    15 1   
    40    14    19 1   
    41    15    16 1   
    42    15    48 1   
    43    15    49 1   
    44    16    17 1   
    45    16    50 1   
    46    16    51 1   
    47    17    18 1   
    48    18    52 1   
    49    18    53 1   
    50    19    20 1   
    51    19    22 1   
    52    20    54 1   
    53    20    55 1   
    54    22    56 1   
    55    22    57 1   
    56    23    24 ar  
    57    23    58 1   
    58    24    59 1   
    59    26    60 1   
    60    28    29 ar  
    61    28    33 ar  
    62    28    66 1   
    63    29    30 ar  
    64    29    61 1   
    65    30    31 ar  
    66    30    62 1   
    67    31    32 ar  
    68    31    63 1   
    69    32    33 ar  
    70    32    64 1   
    71    33    65 1   
@<TRIPOS>SUBSTRUCTURE
     1 7RV         1 TEMP              0 ****  ****    0 ROOT
