@<TRIPOS>MOLECULE
molecule
   65    69     1     0     0
SMALL
bcc


@<TRIPOS>ATOM
      1 C10          0.0000     0.0000     0.0000 c3         1 7RY       0.235800
      2 N12         -1.9790    -0.0010     1.4420 n7         1 7RY      -0.802200
      3 C13         -2.5060     0.0000     2.8130 c3         1 7RY       0.160800
      4 C17          5.6510    -0.0000    -4.6870 ca         1 7RY      -0.168000
      5 C21          3.6200    -0.3780    -8.4400 c3         1 7RY      -0.149400
      6 C22          4.5340    -1.0140    -9.4890 c3         1 7RY      -0.038000
      7 C24          5.6660    -3.1270   -10.1960 c3         1 7RY      -0.061367
      8 C26          4.7980    -1.5380   -11.9180 c3         1 7RY      -0.061367
      9 C28          6.1460    -0.8120   -11.9280 c3         1 7RY      -0.068400
     10 C01          6.2970     0.0010    -3.4550 ca         1 7RY      -0.083000
     11 C02          5.5910     0.0010    -2.2900 ca         1 7RY      -0.212300
     12 C03          4.1860     0.0000    -2.3170 ca         1 7RY       0.492600
     13 C04          3.5190    -0.0000    -3.5660 ca         1 7RY      -0.226300
     14 C05          2.1120    -0.0010    -3.5930 ca         1 7RY      -0.051000
     15 C06          1.4430    -0.0010    -2.4050 ca         1 7RY      -0.299300
     16 C07          2.1590    -0.0000    -1.2010 ca         1 7RY       0.715200
     17 N08          3.4760    -0.0050    -1.1830 nb         1 7RY      -0.770000
     18 N09          1.4660     0.0000     0.0000 nu         1 7RY      -0.920900
     19 C11         -0.5100     0.0000     1.4420 c3         1 7RY       0.140800
     20 C14         -4.0350    -0.0010     2.7720 c3         1 7RY       0.143400
     21 O15         -4.4960    -1.2220     2.1900 oh         1 7RY      -0.591800
     22 C16          4.2730     0.0050    -4.7580 ca         1 7RY       0.082600
     23 N18          3.6310     0.0050    -5.9970 ns         1 7RY      -0.470100
     24 C19          4.2600    -0.4900    -7.0810 c          1 7RY       0.659100
     25 O20          5.3410    -1.0270    -6.9620 o          1 7RY      -0.588100
     26 C23          4.7520    -2.4910    -9.1480 c3         1 7RY      -0.071067
     27 C25          5.0150    -3.0130   -11.5770 c3         1 7RY      -0.068400
     28 C27          3.8840    -0.9000   -10.8690 c3         1 7RY      -0.071067
     29 C29          6.7950    -0.9260   -10.5470 c3         1 7RY      -0.061367
     30 C30          7.0130    -2.4010   -10.2060 c3         1 7RY      -0.068400
     31 C31          5.8810    -0.2900    -9.4990 c3         1 7RY      -0.071067
     32 H1          -0.3610     0.8850    -0.5110 h1         1 7RY       0.047700
     33 H2          -0.3610    -0.8850    -0.5110 h1         1 7RY       0.047700
     34 H3          -2.3130     0.8080     0.9560 hn         1 7RY       0.351800
     35 H5          -2.1590     0.8850     3.3330 h1         1 7RY       0.042700
     36 H6          -2.1580    -0.8840     3.3340 h1         1 7RY       0.042700
     37 H7           6.2350     0.0000    -5.5990 ha         1 7RY       0.169000
     38 H8           3.4660     0.6670    -8.6810 hc         1 7RY       0.062700
     39 H9           2.6660    -0.8920    -8.4330 hc         1 7RY       0.062700
     40 H10          5.8200    -4.1720    -9.9550 hc         1 7RY       0.046367
     41 H11          4.3380    -1.4570   -12.8950 hc         1 7RY       0.046367
     42 H12          6.7930    -1.2630   -12.6700 hc         1 7RY       0.040367
     43 H13          5.9920     0.2330   -12.1690 hc         1 7RY       0.040367
     44 H14          7.3800    -0.0040    -3.4220 ha         1 7RY       0.134000
     45 H15          6.1140     0.0010    -1.3410 ha         1 7RY       0.145000
     46 H16          1.5740    -0.0010    -4.5330 ha         1 7RY       0.125000
     47 H17          0.3600     0.0030    -2.3920 ha         1 7RY       0.138000
     48 H18          1.9660    -0.0070     0.8670 hn         1 7RY       0.450800
     49 H19         -0.1490     0.8850     1.9530 h1         1 7RY       0.039200
     50 H20         -0.1480    -0.8840     1.9530 h1         1 7RY       0.039200
     51 H21         -4.3810     0.8360     2.1760 h1         1 7RY       0.020700
     52 H22         -4.4240     0.0880     3.7790 h1         1 7RY       0.020700
     53 H23         -5.4270    -1.2970     2.3140 ho         1 7RY       0.398000
     54 H24          2.6710     0.2820    -6.0610 hn         1 7RY       0.323500
     55 H25          5.2120    -2.5720    -8.1700 hc         1 7RY       0.049867
     56 H26          3.7980    -3.0040    -9.1410 hc         1 7RY       0.049867
     57 H27          4.0610    -3.5260   -11.5700 hc         1 7RY       0.040367
     58 H28          5.6630    -3.4640   -12.3190 hc         1 7RY       0.040367
     59 H29          2.9300    -1.4140   -10.8630 hc         1 7RY       0.049867
     60 H30          3.7300     0.1440   -11.1110 hc         1 7RY       0.049867
     61 H31          7.7490    -0.4130   -10.5540 hc         1 7RY       0.046367
     62 H32          7.4740    -2.4820    -9.2290 hc         1 7RY       0.040367
     63 H33          7.6610    -2.8520   -10.9480 hc         1 7RY       0.040367
     64 H34          5.7270     0.7550    -9.7400 hc         1 7RY       0.049867
     65 H35          6.3420    -0.3710    -8.5210 hc         1 7RY       0.049867
@<TRIPOS>BOND
     1    21    20 1
     2    20     3 1
     3     3     2 1
     4     2    19 1
     5    19     1 1
     6     1    18 1
     7    18    16 1
     8    16    15 ar
     9    16    17 ar
    10    15    14 ar
    11    17    12 ar
    12    14    13 ar
    13    12    13 ar
    14    12    11 ar
    15    13    22 ar
    16    11    10 ar
    17    22    23 1
    18    22     4 ar
    19    23    24 1
    20    10     4 ar
    21    24     5 1
    22    24    25 2
    23     5     6 1
    24     6    28 1
    25     6    26 1
    26     6    31 1
    27    28     8 1
    28    26     7 1
    29     8    27 1
    30     8     9 1
    31    31    29 1
    32     7    27 1
    33     7    30 1
    34     9    29 1
    35    29    30 1
    36     1    32 1
    37     1    33 1
    38     2    34 1
    39     3    35 1
    40     3    36 1
    41     4    37 1
    42     5    38 1
    43     5    39 1
    44     7    40 1
    45     8    41 1
    46     9    42 1
    47     9    43 1
    48    10    44 1
    49    11    45 1
    50    14    46 1
    51    15    47 1
    52    18    48 1
    53    19    49 1
    54    19    50 1
    55    20    51 1
    56    20    52 1
    57    21    53 1
    58    23    54 1
    59    26    55 1
    60    26    56 1
    61    27    57 1
    62    27    58 1
    63    28    59 1
    64    28    60 1
    65    29    61 1
    66    30    62 1
    67    30    63 1
    68    31    64 1
    69    31    65 1
@<TRIPOS>SUBSTRUCTURE
     1 7RY         1 TEMP              0 ****  ****    0 ROOT
