@<TRIPOS>MOLECULE
7RY
   65    69     1     0     0
SMALL
bcc


@<TRIPOS>ATOM
      1 C10          0.0000     0.0000     0.0000 c3         1 7RY       0.158800
      2 N12         -1.9790    -0.0010     1.4420 n7         1 7RY      -0.563200
      3 C13         -2.5060     0.0000     2.8130 c3         1 7RY       0.135800
      4 C17          5.6510    -0.0000    -4.6870 ca         1 7RY      -0.149000
      5 C21          3.6200    -0.3780    -8.4400 c3         1 7RY      -0.094400
      6 C22          4.5340    -1.0140    -9.4890 c3         1 7RY      -0.031000
      7 C24          5.6660    -3.1270   -10.1960 c3         1 7RY      -0.034033
      8 C26          4.7980    -1.5380   -11.9180 c3         1 7RY      -0.034033
      9 C28          6.1460    -0.8120   -11.9280 c3         1 7RY      -0.017400
     10 C01          6.2970     0.0010    -3.4550 ca         1 7RY      -0.053000
     11 C02          5.5910     0.0010    -2.2900 ca         1 7RY      -0.189300
     12 C03          4.1860     0.0000    -2.3170 ca         1 7RY       0.450600
     13 C04          3.5190    -0.0000    -3.5660 ca         1 7RY      -0.219300
     14 C05          2.1120    -0.0010    -3.5930 ca         1 7RY      -0.026000
     15 C06          1.4430    -0.0010    -2.4050 ca         1 7RY      -0.280300
     16 C07          2.1590    -0.0000    -1.2010 ca         1 7RY       0.529200
     17 N08          3.4760    -0.0050    -1.1830 nb         1 7RY      -0.662000
     18 N09          1.4660     0.0000     0.0000 nu         1 7RY      -0.515900
     19 C11         -0.5100     0.0000     1.4420 c3         1 7RY       0.133800
     20 C14         -4.0350    -0.0010     2.7720 c3         1 7RY       0.228400
     21 O15         -4.4960    -1.2220     2.1900 oh         1 7RY      -0.576800
     22 C16          4.2730     0.0050    -4.7580 ca         1 7RY      -0.062400
     23 N18          3.6310     0.0050    -5.9970 ns         1 7RY      -0.027100
     24 C19          4.2600    -0.4900    -7.0810 c          1 7RY       0.560100
     25 O20          5.3410    -1.0270    -6.9620 o          1 7RY      -0.622100
     26 C23          4.7520    -2.4910    -9.1480 c3         1 7RY      -0.035733
     27 C25          5.0150    -3.0130   -11.5770 c3         1 7RY      -0.017400
     28 C27          3.8840    -0.9000   -10.8690 c3         1 7RY      -0.035733
     29 C29          6.7950    -0.9260   -10.5470 c3         1 7RY      -0.034033
     30 C30          7.0130    -2.4010   -10.2060 c3         1 7RY      -0.017400
     31 C31          5.8810    -0.2900    -9.4990 c3         1 7RY      -0.035733
     32 H1          -0.3610     0.8850    -0.5110 h1         1 7RY       0.021200
     33 H2          -0.3610    -0.8850    -0.5110 h1         1 7RY       0.021200
     34 H3          -2.3130     0.8080     0.9560 hn         1 7RY       0.249800
     35 H5          -2.1590     0.8850     3.3330 h1         1 7RY       0.013200
     36 H6          -2.1580    -0.8840     3.3340 h1         1 7RY       0.013200
     37 H7           6.2350     0.0000    -5.5990 ha         1 7RY       0.153000
     38 H8           3.4660     0.6670    -8.6810 hc         1 7RY       0.031200
     39 H9           2.6660    -0.8920    -8.4330 hc         1 7RY       0.031200
     40 H10          5.8200    -4.1720    -9.9550 hc         1 7RY       0.020700
     41 H11          4.3380    -1.4570   -12.8950 hc         1 7RY       0.020700
     42 H12          6.7930    -1.2630   -12.6700 hc         1 7RY       0.013867
     43 H13          5.9920     0.2330   -12.1690 hc         1 7RY       0.013867
     44 H14          7.3800    -0.0040    -3.4220 ha         1 7RY       0.101000
     45 H15          6.1140     0.0010    -1.3410 ha         1 7RY       0.117000
     46 H16          1.5740    -0.0010    -4.5330 ha         1 7RY       0.098000
     47 H17          0.3600     0.0030    -2.3920 ha         1 7RY       0.122000
     48 H18          1.9660    -0.0070     0.8670 hn         1 7RY       0.301800
     49 H19         -0.1490     0.8850     1.9530 h1         1 7RY       0.011700
     50 H20         -0.1480    -0.8840     1.9530 h1         1 7RY       0.011700
     51 H21         -4.3810     0.8360     2.1760 h1         1 7RY      -0.015800
     52 H22         -4.4240     0.0880     3.7790 h1         1 7RY      -0.015800
     53 H23         -5.4270    -1.2970     2.3140 ho         1 7RY       0.385000
     54 H24          2.6710     0.2820    -6.0610 hn         1 7RY       0.170500
     55 H25          5.2120    -2.5720    -8.1700 hc         1 7RY       0.028367
     56 H26          3.7980    -3.0040    -9.1410 hc         1 7RY       0.028367
     57 H27          4.0610    -3.5260   -11.5700 hc         1 7RY       0.013867
     58 H28          5.6630    -3.4640   -12.3190 hc         1 7RY       0.013867
     59 H29          2.9300    -1.4140   -10.8630 hc         1 7RY       0.028367
     60 H30          3.7300     0.1440   -11.1110 hc         1 7RY       0.028367
     61 H31          7.7490    -0.4130   -10.5540 hc         1 7RY       0.020700
     62 H32          7.4740    -2.4820    -9.2290 hc         1 7RY       0.013867
     63 H33          7.6610    -2.8520   -10.9480 hc         1 7RY       0.013867
     64 H34          5.7270     0.7550    -9.7400 hc         1 7RY       0.028367
     65 H35          6.3420    -0.3710    -8.5210 hc         1 7RY       0.028367
@<TRIPOS>BOND
     1     1    18 1   
     2     1    19 1   
     3     1    32 1   
     4     1    33 1   
     5     2     3 1   
     6     2    19 1   
     7     2    34 1   
     8     3    20 1   
     9     3    35 1   
    10     3    36 1   
    11     4    10 ar  
    12     4    22 ar  
    13     4    37 1   
    14     5     6 1   
    15     5    24 1   
    16     5    38 1   
    17     5    39 1   
    18     6    26 1   
    19     6    28 1   
    20     6    31 1   
    21     7    26 1   
    22     7    27 1   
    23     7    30 1   
    24     7    40 1   
    25     8     9 1   
    26     8    27 1   
    27     8    28 1   
    28     8    41 1   
    29     9    29 1   
    30     9    42 1   
    31     9    43 1   
    32    10    11 ar  
    33    10    44 1   
    34    11    12 ar  
    35    11    45 1   
    36    12    13 ar  
    37    12    17 ar  
    38    13    14 ar  
    39    13    22 ar  
    40    14    15 ar  
    41    14    46 1   
    42    15    16 ar  
    43    15    47 1   
    44    16    17 ar  
    45    16    18 1   
    46    18    48 1   
    47    19    49 1   
    48    19    50 1   
    49    20    21 1   
    50    20    51 1   
    51    20    52 1   
    52    21    53 1   
    53    22    23 1   
    54    23    24 1   
    55    23    54 1   
    56    24    25 2   
    57    26    55 1   
    58    26    56 1   
    59    27    57 1   
    60    27    58 1   
    61    28    59 1   
    62    28    60 1   
    63    29    30 1   
    64    29    31 1   
    65    29    61 1   
    66    30    62 1   
    67    30    63 1   
    68    31    64 1   
    69    31    65 1   
@<TRIPOS>SUBSTRUCTURE
     1 7RY         1 TEMP              0 ****  ****    0 ROOT
