@<TRIPOS>MOLECULE
7S1
   41    43     1     0     0
SMALL
bcc


@<TRIPOS>ATOM
      1 C10          0.0000     0.0000     0.0000 c2         1 7S1       0.568100
      2 C15         -2.0210     0.0560    -1.1380 ca         1 7S1       0.136400
      3 C17         -4.0730     1.3190    -1.2070 ca         1 7S1      -0.044000
      4 C20         -2.8130    -1.1700    -1.0780 ca         1 7S1      -0.168300
      5 C21         -2.2090    -2.4330    -1.0180 ca         1 7S1      -0.065000
      6 C22         -3.0210    -3.5330    -0.9630 ca         1 7S1      -0.246300
      7 C01          2.2500     1.4380     1.7730 c3         1 7S1      -0.024100
      8 C02          2.1040     0.0000     1.2690 c3         1 7S1       0.182800
      9 C03          3.4690    -0.6010     1.0600 ca         1 7S1      -0.057300
     10 C04          4.1880    -0.3050    -0.0830 ca         1 7S1      -0.103000
     11 C05          5.4410    -0.8560    -0.2740 ca         1 7S1      -0.119000
     12 C06          5.9760    -1.7030     0.6780 ca         1 7S1      -0.106000
     13 C07          5.2590    -1.9980     1.8210 ca         1 7S1      -0.119000
     14 C08          4.0070    -1.4430     2.0150 ca         1 7S1      -0.103000
     15 N09          1.3710     0.0000     0.0000 nu         1 7S1      -0.475200
     16 N11         -0.6880     0.0010     1.1920 nu         1 7S1      -0.181800
     17 C12         -2.0370     0.1250     1.1950 c1         1 7S1       0.191600
     18 N13         -3.1690     0.2330     1.1790 n1         1 7S1      -0.369800
     19 N14         -0.6570     0.0050    -1.1380 ne         1 7S1      -0.639100
     20 C16         -2.6860     1.2750    -1.2010 ca         1 7S1      -0.155000
     21 C18         -4.8300     0.1900    -1.1400 ca         1 7S1      -0.142300
     22 C19         -4.2270    -1.0770    -1.0790 ca         1 7S1       0.406600
     23 C23         -4.4030    -3.3770    -0.9680 ca         1 7S1       0.415200
     24 N24         -4.9630    -2.1910    -1.0140 nb         1 7S1      -0.570000
     25 H1          -4.5360     2.2870    -1.3580 ha         1 7S1       0.098000
     26 H2          -1.1540    -2.6420    -1.1440 ha         1 7S1       0.112000
     27 H3          -2.5220    -4.4880    -1.0800 ha         1 7S1       0.109000
     28 H4           2.6920     2.1600     1.0970 hc         1 7S1       0.011033
     29 H5           1.2430     1.8030     1.9320 hc         1 7S1       0.011033
     30 H6           2.4390     1.6500     2.8180 hc         1 7S1       0.011033
     31 H7           1.5600    -0.5850     2.0000 h1         1 7S1       0.020700
     32 H8           4.1290     0.2310    -1.0230 ha         1 7S1       0.125500
     33 H9           5.8660    -0.7680    -1.2670 ha         1 7S1       0.109500
     34 H10          6.9180    -2.2370     0.6420 ha         1 7S1       0.106000
     35 H11          5.9250    -2.4410     2.5520 ha         1 7S1       0.109500
     36 H12          3.5720    -1.9900     2.8430 ha         1 7S1       0.125500
     37 H13          2.0770    -0.1660    -0.6900 hn         1 7S1       0.334800
     38 H14         -0.2840    -0.2710     2.0660 hn         1 7S1       0.293800
     39 H15         -2.0000     2.0560    -1.5060 ha         1 7S1       0.119000
     40 H16         -5.9060     0.2410    -1.2530 ha         1 7S1       0.115000
     41 H17         -5.0240    -4.2610    -1.0430 h4         1 7S1      -0.026900
@<TRIPOS>BOND
     1     1    15 1   
     2     1    16 1   
     3     1    19 2   
     4     2     4 ar  
     5     2    19 1   
     6     2    20 ar  
     7     3    20 ar  
     8     3    21 ar  
     9     3    25 1   
    10     4     5 ar  
    11     4    22 ar  
    12     5     6 ar  
    13     5    26 1   
    14     6    23 ar  
    15     6    27 1   
    16     7     8 1   
    17     7    28 1   
    18     7    29 1   
    19     7    30 1   
    20     8     9 1   
    21     8    15 1   
    22     8    31 1   
    23     9    10 ar  
    24     9    14 ar  
    25    10    11 ar  
    26    10    32 1   
    27    11    12 ar  
    28    11    33 1   
    29    12    13 ar  
    30    12    34 1   
    31    13    14 ar  
    32    13    35 1   
    33    14    36 1   
    34    15    37 1   
    35    16    17 1   
    36    16    38 1   
    37    17    18 3   
    38    20    39 1   
    39    21    22 ar  
    40    21    40 1   
    41    22    24 ar  
    42    23    24 ar  
    43    23    41 1   
@<TRIPOS>SUBSTRUCTURE
     1 7S1         1 TEMP              0 ****  ****    0 ROOT
