@<TRIPOS>MOLECULE
molecule
   41    43     1     0     0
SMALL
bcc


@<TRIPOS>ATOM
      1 C10          0.0000     0.0000     0.0000 c2         1 7S1       0.823100
      2 C15         -2.0210     0.0560    -1.1380 ca         1 7S1       0.159400
      3 C17         -4.0730     1.3190    -1.2070 ca         1 7S1      -0.098000
      4 C20         -2.8130    -1.1700    -1.0780 ca         1 7S1      -0.171300
      5 C21         -2.2090    -2.4330    -1.0180 ca         1 7S1      -0.065000
      6 C22         -3.0210    -3.5330    -0.9630 ca         1 7S1      -0.263300
      7 C01          2.2500     1.4380     1.7730 c3         1 7S1      -0.123100
      8 C02          2.1040     0.0000     1.2690 c3         1 7S1       0.251800
      9 C03          3.4690    -0.6010     1.0600 ca         1 7S1      -0.090300
     10 C04          4.1880    -0.3050    -0.0830 ca         1 7S1      -0.115000
     11 C05          5.4410    -0.8560    -0.2740 ca         1 7S1      -0.122500
     12 C06          5.9760    -1.7030     0.6780 ca         1 7S1      -0.121000
     13 C07          5.2590    -1.9980     1.8210 ca         1 7S1      -0.122500
     14 C08          4.0070    -1.4430     2.0150 ca         1 7S1      -0.115000
     15 N09          1.3710     0.0000     0.0000 nu         1 7S1      -0.815200
     16 N11         -0.6880     0.0010     1.1920 nu         1 7S1      -0.599800
     17 C12         -2.0370     0.1250     1.1950 c1         1 7S1       0.283600
     18 N13         -3.1690     0.2330     1.1790 n1         1 7S1      -0.342800
     19 N14         -0.6570     0.0050    -1.1380 ne         1 7S1      -0.688100
     20 C16         -2.6860     1.2750    -1.2010 ca         1 7S1      -0.161000
     21 C18         -4.8300     0.1900    -1.1400 ca         1 7S1      -0.157300
     22 C19         -4.2270    -1.0770    -1.0790 ca         1 7S1       0.441600
     23 C23         -4.4030    -3.3770    -0.9680 ca         1 7S1       0.433200
     24 N24         -4.9630    -2.1910    -1.0140 nb         1 7S1      -0.684000
     25 H1          -4.5840     2.2730    -1.2560 ha         1 7S1       0.131000
     26 H2          -1.1290    -2.5180    -1.0160 ha         1 7S1       0.150000
     27 H3          -2.5870    -4.5250    -0.9160 ha         1 7S1       0.136000
     28 H4           3.0390     1.4830     2.5130 hc         1 7S1       0.044700
     29 H5           1.3170     1.7600     2.2190 hc         1 7S1       0.044700
     30 H6           2.4970     2.0880     0.9420 hc         1 7S1       0.044700
     31 H7           1.5600    -0.5850     2.0000 h1         1 7S1       0.087700
     32 H8           3.8040     0.4190    -0.7920 ha         1 7S1       0.128500
     33 H9           6.0040    -0.6230    -1.1710 ha         1 7S1       0.134000
     34 H10          6.9590    -2.1350     0.5280 ha         1 7S1       0.133000
     35 H11          5.6780    -2.6620     2.5680 ha         1 7S1       0.134000
     36 H12          3.4820    -1.6100     2.9480 ha         1 7S1       0.128500
     37 H13          1.8710     0.4890    -0.7160 hn         1 7S1       0.450800
     38 H14         -0.6810     0.8170     1.7720 hn         1 7S1       0.415800
     39 H15         -2.1210     2.1980    -1.2460 ha         1 7S1       0.132000
     40 H16         -5.9110     0.2620    -1.1470 ha         1 7S1       0.147000
     41 H17         -5.0460    -4.2470    -0.9250 h4         1 7S1       0.020100
@<TRIPOS>BOND
     1     3    21 ar  
     2     3    20 ar  
     3    21    22 ar  
     4    20     2 ar  
     5    22    24 ar  
     6    22     4 ar  
     7     2     4 ar  
     8     2    19 1   
     9    24    23 ar  
    10     4     5 ar  
    11    19     1 2   
    12    23     6 ar  
    13     1    16 1   
    14     1    15 1   
    15     5     6 ar  
    16    16    17 1   
    17    15     8 1   
    18    17    18 3   
    19     7     8 1   
    20     8     9 1   
    21    10     9 ar  
    22    10    11 ar  
    23     9    14 ar  
    24    11    12 ar  
    25    14    13 ar  
    26    12    13 ar  
    27     3    25 1   
    28     5    26 1   
    29     6    27 1   
    30     7    28 1   
    31     7    29 1   
    32     7    30 1   
    33     8    31 1   
    34    10    32 1   
    35    11    33 1   
    36    12    34 1   
    37    13    35 1   
    38    14    36 1   
    39    15    37 1   
    40    16    38 1   
    41    20    39 1   
    42    21    40 1   
    43    23    41 1   
@<TRIPOS>SUBSTRUCTURE
     1 7S1         1 TEMP              0 ****  ****    0 ROOT
