@<TRIPOS>MOLECULE
7S4
   65    67     1     0     0
SMALL
bcc


@<TRIPOS>ATOM
      1 C10          0.0000     0.0000     0.0000 ca         1 7S4      -0.078300
      2 C13          1.3870    -0.0010     2.3970 ca         1 7S4       0.124100
      3 C15          1.3830     0.0000     0.0000 ca         1 7S4      -0.082000
      4 C17          3.4950    -0.0000     3.4970 c3         1 7S4       0.240700
      5 C21          0.2500     3.9710    -4.3540 c2         1 7S4       0.587100
      6 C26          1.6950     5.2670    -2.9570 ca         1 7S4      -0.003400
      7 C28          4.0560     5.4820    -3.3720 ca         1 7S4      -0.075000
      8 C02         -3.2360     3.2700    -3.8530 c3         1 7S4      -0.092000
      9 C03         -3.5860     2.2860    -4.9720 c3         1 7S4       0.003900
     10 C04         -3.3690     4.7020    -4.3730 c3         1 7S4       0.003900
     11 C05         -1.7980     3.0260    -3.3910 c3         1 7S4       0.186900
     12 N06         -1.6710     1.6540    -2.8930 ns         1 7S4      -0.227900
     13 C07         -1.0090     1.4140    -1.7440 c          1 7S4       0.584100
     14 O08         -0.6200     2.3380    -1.0630 o          1 7S4      -0.642100
     15 C09         -0.7520    -0.0060    -1.3070 c3         1 7S4      -0.030100
     16 C11         -0.6950    -0.0010     1.1950 ca         1 7S4      -0.161000
     17 C12         -0.0050    -0.0020     2.3970 ca         1 7S4       0.121100
     18 C14          2.0770     0.0000     1.1950 ca         1 7S4      -0.173000
     19 O16          2.0680    -0.0010     3.5740 os         1 7S4      -0.292900
     20 O18         -0.6870    -0.0030     3.5740 os         1 7S4      -0.291900
     21 C19         -2.1130    -0.0050     3.4980 c3         1 7S4       0.241700
     22 N20         -0.8830     3.2240    -4.5170 nu         1 7S4      -0.536200
     23 N22          1.1160     4.0820    -5.3460 ne         1 7S4      -0.523700
     24 C23          0.8290     3.5510    -6.5590 cg         1 7S4       0.303800
     25 N24          0.5680     3.1100    -7.5740 n1         1 7S4      -0.479800
     26 N25          0.4860     4.6040    -3.1650 nu         1 7S4      -0.251600
     27 C27          2.8470     4.8250    -3.5750 ca         1 7S4      -0.095000
     28 C29          4.1390     6.5740    -2.5610 ca         1 7S4      -0.151300
     29 C30          2.9870     7.0630    -1.9220 ca         1 7S4       0.384600
     30 C31          1.7510     6.3990    -2.1170 ca         1 7S4      -0.151300
     31 C32          0.6040     6.8850    -1.4680 ca         1 7S4      -0.068000
     32 C33          0.7330     7.9870    -0.6690 ca         1 7S4      -0.214300
     33 C34          1.9770     8.5940    -0.5190 ca         1 7S4       0.408200
     34 N35          3.0450     8.1370    -1.1250 nb         1 7S4      -0.564000
     35 H1           1.9240     0.0310    -0.9380 ha         1 7S4       0.104000
     36 H2           3.8270     0.8660     2.9380 h1         1 7S4      -0.002633
     37 H3           3.9110     0.0360     4.4970 h1         1 7S4      -0.002633
     38 H4           3.8310    -0.9020     2.9990 h1         1 7S4      -0.002633
     39 H5           4.9540     5.1260    -3.8620 ha         1 7S4       0.106000
     40 H6          -3.8180     3.5940    -1.8100 hc         1 7S4       0.012589
     41 H7          -5.1730     3.4440    -2.9370 hc         1 7S4       0.012589
     42 H8          -4.2640     2.0060    -2.4510 hc         1 7S4       0.012589
     43 H9          -3.0180     2.5330    -5.8610 hc         1 7S4       0.012589
     44 H10         -4.6450     2.3500    -5.1920 hc         1 7S4       0.012589
     45 H11         -3.3430     1.2790    -4.6570 hc         1 7S4       0.012589
     46 H12         -3.1260     5.3990    -3.5800 hc         1 7S4       0.012589
     47 H13         -4.3870     4.8730    -4.7040 hc         1 7S4       0.012589
     48 H14         -2.6900     4.8490    -5.2040 hc         1 7S4       0.012589
     49 H15         -1.5510     3.7220    -2.5980 h2         1 7S4       0.080700
     50 H16         -2.0290     0.8910    -3.4320 hn         1 7S4       0.191500
     51 H17         -0.1550    -0.5000    -2.0640 hc         1 7S4       0.033200
     52 H18         -1.6880    -0.5360    -1.1820 hc         1 7S4       0.033200
     53 H19         -1.7780    -0.0010     1.1920 ha         1 7S4       0.120000
     54 H20          3.1600     0.0000     1.1920 ha         1 7S4       0.123000
     55 H21         -2.4490     0.9000     3.0050 h1         1 7S4      -0.003967
     56 H22         -2.5280    -0.0470     4.4970 h1         1 7S4      -0.003967
     57 H23         -2.4440    -0.8680     2.9330 h1         1 7S4      -0.003967
     58 H24         -1.0640     2.7750    -5.3930 hn         1 7S4       0.333800
     59 H25         -0.1540     4.4940    -2.4040 hn         1 7S4       0.313800
     60 H26          2.8150     3.9600    -4.2250 ha         1 7S4       0.148000
     61 H27          5.0910     7.0700    -2.4170 ha         1 7S4       0.118000
     62 H28         -0.3490     6.3900    -1.6080 ha         1 7S4       0.103000
     63 H29         -0.1320     8.3870    -0.1550 ha         1 7S4       0.111000
     64 H30          2.0800     9.4670     0.1140 h4         1 7S4      -0.021900
     65 C01         -4.1920     3.0630    -2.6770 c3         1 7S4       0.003900
@<TRIPOS>BOND
     1     1     3 ar  
     2     1    15 1   
     3     1    16 ar  
     4     2    17 ar  
     5     2    18 ar  
     6     2    19 1   
     7     3    18 ar  
     8     3    35 1   
     9     4    19 1   
    10     4    36 1   
    11     4    37 1   
    12     4    38 1   
    13     5    22 1   
    14     5    23 2   
    15     5    26 1   
    16     6    26 1   
    17     6    27 ar  
    18     6    30 ar  
    19     7    27 ar  
    20     7    28 ar  
    21     7    39 1   
    22     8     9 1   
    23     8    10 1   
    24     8    11 1   
    25     8    65 1   
    26     9    43 1   
    27     9    44 1   
    28     9    45 1   
    29    10    46 1   
    30    10    47 1   
    31    10    48 1   
    32    11    12 1   
    33    11    22 1   
    34    11    49 1   
    35    12    13 1   
    36    12    50 1   
    37    13    14 2   
    38    13    15 1   
    39    15    51 1   
    40    15    52 1   
    41    16    17 ar  
    42    16    53 1   
    43    17    20 1   
    44    18    54 1   
    45    20    21 1   
    46    21    55 1   
    47    21    56 1   
    48    21    57 1   
    49    22    58 1   
    50    23    24 1   
    51    24    25 3   
    52    26    59 1   
    53    27    60 1   
    54    28    29 ar  
    55    28    61 1   
    56    29    30 ar  
    57    29    34 ar  
    58    30    31 ar  
    59    31    32 ar  
    60    31    62 1   
    61    32    33 ar  
    62    32    63 1   
    63    33    34 ar  
    64    33    64 1   
    65    40    65 1   
    66    41    65 1   
    67    42    65 1   
@<TRIPOS>SUBSTRUCTURE
     1 7S4         1 TEMP              0 ****  ****    0 ROOT
