@<TRIPOS>MOLECULE
molecule
   65    67     1     0     0
SMALL
bcc


@<TRIPOS>ATOM
      1 C10          0.0000     0.0000     0.0000 ca         1 7S4      -0.074300
      2 C13          1.3870    -0.0010     2.3970 ca         1 7S4       0.123100
      3 C15          1.3830     0.0000     0.0000 ca         1 7S4      -0.106000
      4 C17          3.4950    -0.0000     3.4970 c3         1 7S4       0.123700
      5 C21          0.2500     3.9710    -4.3540 c2         1 7S4       0.857100
      6 C26          1.6950     5.2670    -2.9570 ca         1 7S4       0.076600
      7 C28          4.0560     5.4820    -3.3720 ca         1 7S4      -0.111000
      8 C02         -3.2360     3.2700    -3.8530 c3         1 7S4      -0.084000
      9 C03         -3.5860     2.2860    -4.9720 c3         1 7S4      -0.085433
     10 C04         -3.3690     4.7020    -4.3730 c3         1 7S4      -0.085433
     11 C05         -1.7980     3.0260    -3.3910 c3         1 7S4       0.364900
     12 N06         -1.6710     1.6540    -2.8930 ns         1 7S4      -0.603900
     13 C07         -1.0090     1.4140    -1.7440 c          1 7S4       0.645100
     14 O08         -0.6200     2.3380    -1.0630 o          1 7S4      -0.568100
     15 C09         -0.7520    -0.0060    -1.3070 c3         1 7S4      -0.102100
     16 C11         -0.6950    -0.0010     1.1950 ca         1 7S4      -0.173000
     17 C12         -0.0050    -0.0020     2.3970 ca         1 7S4       0.117100
     18 C14          2.0770     0.0000     1.1950 ca         1 7S4      -0.188000
     19 O16          2.0680    -0.0010     3.5740 os         1 7S4      -0.312900
     20 O18         -0.6870    -0.0030     3.5740 os         1 7S4      -0.312900
     21 C19         -2.1130    -0.0050     3.4980 c3         1 7S4       0.127700
     22 N20         -0.8830     3.2240    -4.5170 nu         1 7S4      -0.839200
     23 N22          1.1160     4.0820    -5.3460 ne         1 7S4      -0.584700
     24 C23          0.8290     3.5510    -6.5590 cg         1 7S4       0.328800
     25 N24          0.5810     3.1230    -7.5820 n1         1 7S4      -0.419800
     26 N25          0.4860     4.6040    -3.1650 nu         1 7S4      -0.633600
     27 C27          2.8470     4.8250    -3.5750 ca         1 7S4      -0.092000
     28 C29          4.1390     6.5740    -2.5610 ca         1 7S4      -0.176300
     29 C30          2.9870     7.0630    -1.9220 ca         1 7S4       0.432600
     30 C31          1.7510     6.3990    -2.1170 ca         1 7S4      -0.170300
     31 C32          0.6040     6.8850    -1.4680 ca         1 7S4      -0.093000
     32 C33          0.7330     7.9870    -0.6690 ca         1 7S4      -0.245300
     33 C34          1.9770     8.5940    -0.5190 ca         1 7S4       0.431200
     34 N35          3.0450     8.1370    -1.1250 nb         1 7S4      -0.673000
     35 H1           1.9240     0.0780    -0.9350 ha         1 7S4       0.133000
     36 H2           3.8130    -0.6110     2.6610 h1         1 7S4       0.042033
     37 H3           3.8490     1.0140     3.3580 h1         1 7S4       0.042033
     38 H4           3.9060    -0.4030     4.4150 h1         1 7S4       0.042033
     39 H5           4.9540     5.1260    -3.8620 ha         1 7S4       0.139000
     40 H6          -4.3650     2.0040    -2.5330 hc         1 7S4       0.041589
     41 H7          -5.1340     3.5570    -2.8860 hc         1 7S4       0.041589
     42 H8          -3.7560     3.4830    -1.7790 hc         1 7S4       0.041589
     43 H9          -3.2680     2.6940    -5.9240 hc         1 7S4       0.041589
     44 H10         -3.0810     1.3440    -4.7960 hc         1 7S4       0.041589
     45 H11         -4.6570     2.1240    -4.9890 hc         1 7S4       0.041589
     46 H12         -4.4010     4.8950    -4.6410 hc         1 7S4       0.041589
     47 H13         -3.0610     5.3970    -3.6020 hc         1 7S4       0.041589
     48 H14         -2.7410     4.8290    -5.2460 hc         1 7S4       0.041589
     49 H15         -1.5510     3.7220    -2.5980 h2         1 7S4       0.108700
     50 H16         -2.3470     0.9630    -3.1530 hn         1 7S4       0.314500
     51 H17         -1.6990    -0.5140    -1.1760 hc         1 7S4       0.066700
     52 H18         -0.1660    -0.5220    -2.0580 hc         1 7S4       0.066700
     53 H19         -1.7780    -0.0010     1.1910 ha         1 7S4       0.136000
     54 H20          3.1600     0.0000     1.1920 ha         1 7S4       0.143000
     55 H21         -2.4430     0.8380     2.9030 h1         1 7S4       0.039367
     56 H22         -2.5280     0.0730     4.4950 h1         1 7S4       0.039367
     57 H23         -2.4490    -0.9260     3.0370 h1         1 7S4       0.039367
     58 H24         -0.8540     2.3840    -5.0600 hn         1 7S4       0.443800
     59 H25          0.0300     5.4710    -2.9610 hn         1 7S4       0.425800
     60 H26          2.9470     3.7830    -3.8530 ha         1 7S4       0.151000
     61 H27          5.0910     7.0700    -2.4170 ha         1 7S4       0.150000
     62 H28         -0.3500     6.3900    -1.6070 ha         1 7S4       0.136000
     63 H29         -0.1320     8.3870    -0.1550 ha         1 7S4       0.139000
     64 H30          2.0800     9.4670     0.1140 h4         1 7S4       0.024100
     65 C01         -4.1920     3.0630    -2.6770 c3         1 7S4      -0.085433
@<TRIPOS>BOND
     1    33    34 ar
     2    33    32 ar
     3    34    29 ar
     4    32    31 ar
     5    29    28 ar
     6    29    30 ar
     7    28     7 ar
     8    31    30 ar
     9    30     6 ar
    10     7    27 ar
    11     6    27 ar
    12     6    26 1
    13    23    24 1
    14    23     5 2
    15    24    25 3
    16    26     5 1
    17     5    22 1
    18    22    11 1
    19     9     8 1
    20    11     8 1
    21    11    12 1
    22    10     8 1
    23     8    65 1
    24    12    13 1
    25    14    13 2
    26    13    15 1
    27    15     1 1
    28     1    16 ar
    29     1     3 ar
    30    16    17 ar
    31     3    18 ar
    32    17    20 1
    33    17     2 ar
    34    20    21 1
    35    18     2 ar
    36     2    19 1
    37    19     4 1
    38     3    35 1
    39     4    36 1
    40     4    37 1
    41     4    38 1
    42     7    39 1
    43    65    40 1
    44    65    41 1
    45    65    42 1
    46     9    43 1
    47     9    44 1
    48     9    45 1
    49    10    46 1
    50    10    47 1
    51    10    48 1
    52    11    49 1
    53    12    50 1
    54    15    51 1
    55    15    52 1
    56    16    53 1
    57    18    54 1
    58    21    55 1
    59    21    56 1
    60    21    57 1
    61    22    58 1
    62    26    59 1
    63    27    60 1
    64    28    61 1
    65    31    62 1
    66    32    63 1
    67    33    64 1
@<TRIPOS>SUBSTRUCTURE
     1 7S4         1 TEMP              0 ****  ****    0 ROOT
