@<TRIPOS>MOLECULE
molecule
   57    59     1     0     0
SMALL
bcc


@<TRIPOS>ATOM
      1 N22          0.0000     0.0000     0.0000 nv         1 7S7      -0.992500
      2 C22          1.3900     0.0000     0.0000 ca         1 7S7       0.710200
      3 C23          2.0790     0.0000     1.2090 ca         1 7S7      -0.327300
      4 C24          3.4620     0.0000     1.1940 ca         1 7S7       0.010700
      5 C27          4.2460    -0.0000     2.4810 c3         1 7S7      -0.057800
      6 C25          4.1120     0.0000    -0.0330 ca         1 7S7      -0.365300
      7 N21          2.0460    -0.0050    -1.1490 nb         1 7S7      -0.806000
      8 C26          3.3650     0.0000    -1.1940 ca         1 7S7       0.419600
      9 C20          4.0650     0.0010    -2.5290 c3         1 7S7      -0.132700
     10 C17          3.5690    -1.1810    -3.3650 c3         1 7S7      -0.128000
     11 C18          3.9820    -2.4910    -2.6920 c3         1 7S7       0.099800
     12 N19          3.2960    -2.6140    -1.3980 nz         1 7S7      -0.821600
     13 C16          4.1750    -1.1100    -4.7430 ca         1 7S7       0.404600
     14 N11          3.5020    -0.5390    -5.7220 nb         1 7S7      -0.675000
     15 C15          5.4320    -1.6410    -4.9630 ca         1 7S7      -0.270300
     16 C14          5.9810    -1.5720    -6.2350 ca         1 7S7      -0.074000
     17 C13          5.2420    -0.9670    -7.2400 ca         1 7S7      -0.228300
     18 C12          3.9930    -0.4530    -6.9430 ca         1 7S7       0.451600
     19 C09          3.1840     0.2100    -8.0270 c3         1 7S7      -0.128700
     20 C08          2.4040    -0.8520    -8.8040 c3         1 7S7      -0.116700
     21 C06          1.5940    -0.1880    -9.8880 ca         1 7S7       0.467600
     22 N01          0.7540     0.7790    -9.5740 nb         1 7S7      -0.778000
     23 C02          0.0230     1.3910   -10.4930 ca         1 7S7       0.714200
     24 N02         -0.8490     2.4050   -10.1160 nv         1 7S7      -1.011500
     25 C03          0.1210     1.0270   -11.8320 ca         1 7S7      -0.319300
     26 C04          0.9930     0.0150   -12.1920 ca         1 7S7       0.001700
     27 C05          1.7450    -0.5960   -11.1980 ca         1 7S7      -0.310300
     28 C07          1.1280    -0.4090   -13.6320 c3         1 7S7      -0.051800
     29 H221        -0.5000     0.0480    -0.8650 hn         1 7S7       0.455800
     30 H222        -0.5000    -0.0220     0.8670 hn         1 7S7       0.455800
     31 H23          1.5470     0.1800     2.1360 ha         1 7S7       0.163000
     32 H271         4.6050    -1.0020     2.6850 hc         1 7S7       0.062367
     33 H272         5.0890     0.6740     2.3900 hc         1 7S7       0.062367
     34 H273         3.6080     0.3270     3.2930 hc         1 7S7       0.062367
     35 H25          5.1830     0.1570    -0.0790 ha         1 7S7       0.158000
     36 H201         5.1340    -0.0880    -2.3760 hc         1 7S7       0.091200
     37 H202         3.8500     0.9270    -3.0480 hc         1 7S7       0.091200
     38 H17          2.4890    -1.1400    -3.4440 hc         1 7S7       0.110700
     39 H181         3.7080    -3.3250    -3.3270 hx         1 7S7       0.106200
     40 H182         5.0540    -2.4940    -2.5340 hx         1 7S7       0.106200
     41 H191         2.4050    -2.1610    -1.4480 hn         1 7S7       0.459133
     42 H192         3.8500    -2.1830    -0.6840 hn         1 7S7       0.459133
     43 H15          5.9810    -2.1070    -4.1540 ha         1 7S7       0.122000
     44 H14          6.9630    -1.9810    -6.4380 ha         1 7S7       0.152000
     45 H13          5.6400    -0.8940    -8.2450 ha         1 7S7       0.159000
     46 H091         2.4910     0.9130    -7.5810 hc         1 7S7       0.078700
     47 H092         3.8480     0.7370    -8.7020 hc         1 7S7       0.078700
     48 H081         1.7410    -1.3790    -8.1290 hc         1 7S7       0.056200
     49 H082         3.0970    -1.5540    -9.2510 hc         1 7S7       0.056200
     50 H05          2.4370    -1.3910   -11.4470 ha         1 7S7       0.136000
     51 H021        -1.4050     2.8700   -10.8070 hn         1 7S7       0.440800
     52 H022        -0.9260     2.6680    -9.1540 hn         1 7S7       0.440800
     53 H03         -0.4790     1.5270   -12.5830 ha         1 7S7       0.140000
     54 H071         1.0390    -1.4860   -13.7010 hc         1 7S7       0.050700
     55 H072         2.0960    -0.1010   -14.0100 hc         1 7S7       0.050700
     56 H073         0.3460     0.0570   -14.2200 hc         1 7S7       0.050700
     57 H193         3.1640    -3.5820    -1.1810 hn         1 7S7       0.459133
@<TRIPOS>BOND
     1     1     2 1   
     2     2     3 ar  
     3     2     7 ar  
     4     3     4 ar  
     5     4     5 1   
     6     4     6 ar  
     7     6     8 ar  
     8     7     8 ar  
     9     8     9 1   
    10     9    10 1   
    11    10    11 1   
    12    10    13 1   
    13    11    12 1   
    14    13    14 ar  
    15    13    15 ar  
    16    14    18 ar  
    17    15    16 ar  
    18    16    17 ar  
    19    17    18 ar  
    20    18    19 1   
    21    19    20 1   
    22    20    21 1   
    23    21    22 ar  
    24    21    27 ar  
    25    22    23 ar  
    26    23    24 1   
    27    23    25 ar  
    28    25    26 ar  
    29    26    27 ar  
    30    26    28 1   
    31     1    29 1   
    32     1    30 1   
    33     3    31 1   
    34     5    32 1   
    35     5    33 1   
    36     5    34 1   
    37     6    35 1   
    38     9    36 1   
    39     9    37 1   
    40    10    38 1   
    41    11    39 1   
    42    11    40 1   
    43    12    41 1   
    44    12    42 1   
    45    15    43 1   
    46    16    44 1   
    47    17    45 1   
    48    19    46 1   
    49    19    47 1   
    50    20    48 1   
    51    20    49 1   
    52    27    50 1   
    53    24    51 1   
    54    24    52 1   
    55    25    53 1   
    56    28    54 1   
    57    28    55 1   
    58    28    56 1   
    59    57    12 1   
@<TRIPOS>SUBSTRUCTURE
     1 7S7         1 TEMP              0 ****  ****    0 ROOT
