@<TRIPOS>MOLECULE
7S7
   57    59     1     0     0
SMALL
bcc


@<TRIPOS>ATOM
      1 N22          0.0000     0.0000     0.0000 nv         1 7S7      -0.487500
      2 C22          1.3900     0.0000     0.0000 ca         1 7S7       0.511200
      3 C23          2.0790     0.0000     1.2090 ca         1 7S7      -0.311300
      4 C24          3.4620     0.0000     1.1940 ca         1 7S7       0.020700
      5 C27          4.2460    -0.0000     2.4810 c3         1 7S7       0.054200
      6 C25          4.1120     0.0000    -0.0330 ca         1 7S7      -0.343300
      7 N21          2.0460    -0.0050    -1.1490 nb         1 7S7      -0.690000
      8 C26          3.3650     0.0000    -1.1940 ca         1 7S7       0.361600
      9 C20          4.0650     0.0010    -2.5290 c3         1 7S7      -0.079700
     10 C17          3.5690    -1.1810    -3.3650 c3         1 7S7      -0.093000
     11 C18          3.9820    -2.4910    -2.6920 c3         1 7S7      -0.043200
     12 N19          3.2960    -2.6140    -1.3980 nz         1 7S7       0.005400
     13 C16          4.1750    -1.1100    -4.7430 ca         1 7S7       0.342600
     14 N11          3.5020    -0.5390    -5.7220 nb         1 7S7      -0.543000
     15 C15          5.4320    -1.6410    -4.9630 ca         1 7S7      -0.239300
     16 C14          5.9810    -1.5720    -6.2350 ca         1 7S7      -0.046000
     17 C13          5.2420    -0.9670    -7.2400 ca         1 7S7      -0.190300
     18 C12          3.9930    -0.4530    -6.9430 ca         1 7S7       0.396600
     19 C09          3.1840     0.2100    -8.0270 c3         1 7S7      -0.078700
     20 C08          2.4040    -0.8520    -8.8040 c3         1 7S7      -0.060700
     21 C06          1.5940    -0.1880    -9.8880 ca         1 7S7       0.418600
     22 N01          0.7540     0.7790    -9.5740 nb         1 7S7      -0.662000
     23 C02          0.0230     1.3910   -10.4930 ca         1 7S7       0.517200
     24 N02         -0.8490     2.4050   -10.1160 nv         1 7S7      -0.528500
     25 C03          0.1210     1.0270   -11.8320 ca         1 7S7      -0.303300
     26 C04          0.9930     0.0150   -12.1920 ca         1 7S7       0.002700
     27 C05          1.7450    -0.5960   -11.1980 ca         1 7S7      -0.290300
     28 C07          1.1280    -0.4090   -13.6320 c3         1 7S7       0.058200
     29 H221        -0.5000     0.0480    -0.8650 hn         1 7S7       0.283800
     30 H222        -0.5000    -0.0220     0.8670 hn         1 7S7       0.283800
     31 H23          1.5470     0.1800     2.1360 ha         1 7S7       0.143000
     32 H271         4.6050    -1.0020     2.6850 hc         1 7S7       0.023033
     33 H272         5.0890     0.6740     2.3900 hc         1 7S7       0.023033
     34 H273         3.6080     0.3270     3.2930 hc         1 7S7       0.023033
     35 H25          5.1830     0.1570    -0.0790 ha         1 7S7       0.143000
     36 H201         5.1340    -0.0880    -2.3760 hc         1 7S7       0.055700
     37 H202         3.8500     0.9270    -3.0480 hc         1 7S7       0.055700
     38 H17          2.4890    -1.1400    -3.4440 hc         1 7S7       0.076700
     39 H181         3.7080    -3.3250    -3.3270 hx         1 7S7       0.082200
     40 H182         5.0540    -2.4940    -2.5340 hx         1 7S7       0.082200
     41 H191         2.4050    -2.1610    -1.4480 hn         1 7S7       0.240800
     42 H192         3.8500    -2.1830    -0.6840 hn         1 7S7       0.240800
     43 H15          5.9810    -2.1070    -4.1540 ha         1 7S7       0.105000
     44 H14          6.9630    -1.9810    -6.4380 ha         1 7S7       0.119000
     45 H13          5.6400    -0.8940    -8.2450 ha         1 7S7       0.131000
     46 H091         2.4910     0.9130    -7.5810 hc         1 7S7       0.042200
     47 H092         3.8480     0.7370    -8.7020 hc         1 7S7       0.042200
     48 H081         1.7410    -1.3790    -8.1290 hc         1 7S7       0.021200
     49 H082         3.0970    -1.5540    -9.2510 hc         1 7S7       0.021200
     50 H05          2.4370    -1.3910   -11.4470 ha         1 7S7       0.119000
     51 H021        -1.4050     2.8700   -10.8070 hn         1 7S7       0.271300
     52 H022        -0.9260     2.6680    -9.1540 hn         1 7S7       0.271300
     53 H03         -0.4790     1.5270   -12.5830 ha         1 7S7       0.124000
     54 H071         1.0390    -1.4860   -13.7010 hc         1 7S7       0.013033
     55 H072         2.0960    -0.1010   -14.0100 hc         1 7S7       0.013033
     56 H073         0.3460     0.0570   -14.2200 hc         1 7S7       0.013033
     57 H193         3.1640    -3.5820    -1.1810 hn         1 7S7       0.240800
@<TRIPOS>BOND
     1     1     2 1   
     2     1    29 1   
     3     1    30 1   
     4     2     3 ar  
     5     2     7 ar  
     6     3     4 ar  
     7     3    31 1   
     8     4     5 1   
     9     4     6 ar  
    10     5    32 1   
    11     5    33 1   
    12     5    34 1   
    13     6     8 ar  
    14     6    35 1   
    15     7     8 ar  
    16     8     9 1   
    17     9    10 1   
    18     9    36 1   
    19     9    37 1   
    20    10    11 1   
    21    10    13 1   
    22    10    38 1   
    23    11    12 1   
    24    11    39 1   
    25    11    40 1   
    26    12    41 1   
    27    12    42 1   
    28    12    57 1   
    29    13    14 ar  
    30    13    15 ar  
    31    14    18 ar  
    32    15    16 ar  
    33    15    43 1   
    34    16    17 ar  
    35    16    44 1   
    36    17    18 ar  
    37    17    45 1   
    38    18    19 1   
    39    19    20 1   
    40    19    46 1   
    41    19    47 1   
    42    20    21 1   
    43    20    48 1   
    44    20    49 1   
    45    21    22 ar  
    46    21    27 ar  
    47    22    23 ar  
    48    23    24 1   
    49    23    25 ar  
    50    24    51 1   
    51    24    52 1   
    52    25    26 ar  
    53    25    53 1   
    54    26    27 ar  
    55    26    28 1   
    56    27    50 1   
    57    28    54 1   
    58    28    55 1   
    59    28    56 1   
@<TRIPOS>SUBSTRUCTURE
     1 7S7         1 TEMP              0 ****  ****    0 ROOT
