@<TRIPOS>MOLECULE
7S9
   45    46     1     0     0
SMALL
bcc


@<TRIPOS>ATOM
      1 C07          0.0000     0.0000     0.0000 c3         1 7S9       0.060200
      2 C06          3.7800     0.0000     0.0000 ca         1 7S9       0.422600
      3 C05          2.4750     0.0000     0.4560 ca         1 7S9      -0.282300
      4 C04          1.4340     0.0000    -0.4610 ca         1 7S9      -0.009300
      5 C03          1.7430     0.0010    -1.8100 ca         1 7S9      -0.302300
      6 C02          3.0780    -0.0000    -2.1980 ca         1 7S9       0.515200
      7 N02          3.4030     0.0010    -3.5510 nv         1 7S9      -0.552500
      8 N01          4.0440    -0.0000    -1.2920 nb         1 7S9      -0.647000
      9 C09          5.8450    -1.1750     0.7090 c3         1 7S9       0.037900
     10 C16          9.0710    -1.1130     3.4380 ca         1 7S9       0.400200
     11 C15          7.9330    -1.8180     3.7850 ca         1 7S9      -0.207600
     12 C14          6.8640    -1.8500     2.9040 ca         1 7S9      -0.069000
     13 C13          6.9790    -1.1700     1.7010 ca         1 7S9      -0.206600
     14 C12          8.1470    -0.4860     1.4230 ca         1 7S9       0.401200
     15 N11          9.1450    -0.4760     2.2860 nb         1 7S9      -0.579000
     16 C18          7.2870    -1.6040     6.1700 c3         1 7S9       0.154800
     17 N19          7.2130    -2.3110     7.4560 n3         1 7S9      -0.547600
     18 C20          6.8960    -1.3820     8.5490 c3         1 7S9       0.181100
     19 C21          6.2380    -3.4080     7.3980 c3         1 7S9       0.181100
     20 H071        -0.2890     1.0060     0.2800 hc         1 7S9       0.010033
     21 H072        -0.6380    -0.3490    -0.8030 hc         1 7S9       0.010033
     22 H073        -0.1040    -0.6570     0.8550 hc         1 7S9       0.010033
     23 H05          2.2680     0.0000     1.5190 ha         1 7S9       0.119000
     24 H081         5.4690     0.9320     0.9010 hc         1 7S9       0.023700
     25 H082         4.5160    -0.0800     1.9960 hc         1 7S9       0.023700
     26 H03          0.9650     0.1760    -2.5430 ha         1 7S9       0.120000
     27 H021         2.7630    -0.3820    -4.2190 hn         1 7S9       0.270800
     28 H022         4.2860     0.3610    -3.8530 hn         1 7S9       0.270800
     29 H091         5.2900    -2.1020     0.8000 hc         1 7S9       0.028700
     30 H092         6.2420    -1.0890    -0.2950 hc         1 7S9       0.028700
     31 H16          9.9110    -1.0820     4.1220 h4         1 7S9      -0.016900
     32 H14          5.9600    -2.3950     3.1480 ha         1 7S9       0.113000
     33 H171         8.8500    -2.8620     5.3980 hc         1 7S9       0.027700
     34 H172         7.2150    -3.4090     5.0040 hc         1 7S9       0.027700
     35 H12          8.2450     0.0480     0.4860 h4         1 7S9      -0.014900
     36 H181         7.9290    -0.7380     6.2700 h1         1 7S9       0.011700
     37 H182         6.2940    -1.2850     5.8750 h1         1 7S9       0.011700
     38 H201         5.9880    -0.8410     8.3120 h1         1 7S9       0.001533
     39 H202         6.7550    -1.9390     9.4670 h1         1 7S9       0.001533
     40 H203         7.7120    -0.6800     8.6740 h1         1 7S9       0.001533
     41 H211         6.7500    -4.3340     7.1620 h1         1 7S9       0.001533
     42 H212         5.5020    -3.1970     6.6310 h1         1 7S9       0.001533
     43 H213         5.7430    -3.5030     8.3570 h1         1 7S9       0.001533
     44 C08          4.9140     0.0060     0.9920 c3         1 7S9      -0.068700
     45 C17          7.8580    -2.5430     5.1040 c3         1 7S9       0.029900
@<TRIPOS>BOND
     1     1     4 1   
     2     1    20 1   
     3     1    21 1   
     4     1    22 1   
     5     2     3 ar  
     6     2     8 ar  
     7     2    44 1   
     8     3     4 ar  
     9     3    23 1   
    10     4     5 ar  
    11     5     6 ar  
    12     5    26 1   
    13     6     7 1   
    14     6     8 ar  
    15     7    27 1   
    16     7    28 1   
    17     9    13 1   
    18     9    29 1   
    19     9    30 1   
    20     9    44 1   
    21    10    11 ar  
    22    10    15 ar  
    23    10    31 1   
    24    11    12 ar  
    25    11    45 1   
    26    12    13 ar  
    27    12    32 1   
    28    13    14 ar  
    29    14    15 ar  
    30    14    35 1   
    31    16    17 1   
    32    16    36 1   
    33    16    37 1   
    34    16    45 1   
    35    17    18 1   
    36    17    19 1   
    37    18    38 1   
    38    18    39 1   
    39    18    40 1   
    40    19    41 1   
    41    19    42 1   
    42    19    43 1   
    43    24    44 1   
    44    25    44 1   
    45    33    45 1   
    46    34    45 1   
@<TRIPOS>SUBSTRUCTURE
     1 7S9         1 TEMP              0 ****  ****    0 ROOT
