@<TRIPOS>MOLECULE
7SB
   30    32     1     0     0
SMALL
bcc


@<TRIPOS>ATOM
      1 CL          0.0120   -0.3010   -0.0810 cl        1 7SB     -0.093400
      2 CAB        10.7690    5.3720    5.6440 cc        1 7SB     -0.268300
      3 CAC        11.4170    4.2280    6.0630 cd        1 7SB      0.261600
      4 CAD         9.5970    4.9460    4.9140 cc        1 7SB     -0.186300
      5 CAE         2.6570    0.1490    0.0100 ca        1 7SB     -0.127500
      6 CAF         1.5720   -0.4550    2.0970 ca        1 7SB     -0.127500
      7 CAG         3.8790    0.2320    0.6750 ca        1 7SB     -0.107000
      8 CAH         2.7980   -0.3650    2.7540 ca        1 7SB     -0.107000
      9 CAI         5.2760    0.0280    2.7590 c3        1 7SB      0.224100
     10 NAJ         8.8930    1.1850    4.5090 na        1 7SB     -0.140400
     11 NAK         7.5720    2.8210    3.6840 nc        1 7SB     -0.695000
     12 NAL         5.9750    1.2850    2.5460 nh        1 7SB     -0.783900
     13 NAM         7.9150    0.5180    3.8990 nd        1 7SB     -0.556800
     14 OAN        10.7250    3.0930    5.6430 os        1 7SB     -0.373800
     15 CAO         1.5060   -0.1960    0.7250 ca        1 7SB      0.021400
     16 CAP         3.9560   -0.0240    2.0480 ca        1 7SB     -0.105300
     17 CAQ         8.7120    2.5750    4.3860 cd        1 7SB      0.399500
     18 CAR         9.6030    3.5630    4.9350 cd        1 7SB      0.186700
     19 CAS         7.0900    1.5110    3.3770 cc        1 7SB      0.712900
     20 HAC        12.3190    4.0130    6.6300 h4        1 7SB      0.058100
     21 HAD         8.8580    5.5910    4.4430 ha        1 7SB      0.181000
     22 HAE         2.6020    0.3530   -1.0700 ha        1 7SB      0.148500
     23 HAF         0.6650   -0.7280    2.6570 ha        1 7SB      0.148500
     24 HAG         4.7890    0.4990    0.1150 ha        1 7SB      0.146000
     25 HAH         2.8490   -0.5680    3.8350 ha        1 7SB      0.146000
     26 HAI         5.1160   -0.1810    3.8580 h1        1 7SB      0.059200
     27 HAIA        5.9370   -0.7940    2.3540 h1        1 7SB      0.059200
     28 HNAL        5.3630    2.0780    2.5120 hn        1 7SB      0.410800
     29 HNAJ        9.6450    0.7100    4.9510 hn        1 7SB      0.336700
     30 HAB        11.0660    6.4040    5.8170 ha        1 7SB      0.169000
@<TRIPOS>BOND
     1    1   15 1   
     2    2    3 2   
     3    2    4 1   
     4    2   30 1   
     5    3   14 1   
     6    3   20 1   
     7    4   18 2   
     8    4   21 1   
     9    5    7 ar  
    10    5   15 ar  
    11    5   22 1   
    12    6    8 ar  
    13    6   15 ar  
    14    6   23 1   
    15    7   16 ar  
    16    7   24 1   
    17    8   16 ar  
    18    8   25 1   
    19    9   12 1   
    20    9   16 1   
    21    9   26 1   
    22    9   27 1   
    23   10   13 1   
    24   10   17 1   
    25   10   29 1   
    26   11   17 2   
    27   11   19 1   
    28   12   19 1   
    29   12   28 1   
    30   13   19 2   
    31   14   18 1   
    32   17   18 1   
@<TRIPOS>SUBSTRUCTURE
     1 7SB         1 TEMP              0 ****  ****    0 ROOT
