@<TRIPOS>MOLECULE
molecule
   56    59     1     0     0
SMALL
bcc


@<TRIPOS>ATOM
      1 C01          0.0000     0.0000     0.0000 c3         1 7SD      -0.052800
      2 C02          1.5080     0.0000     0.0000 ca         1 7SD      -0.026300
      3 C04          3.6060    -0.0090    -1.1480 ca         1 7SD       0.692200
      4 N05          4.3290    -0.0200    -2.3340 nv         1 7SD      -1.084500
      5 C07          3.5970    -0.0000     1.1600 ca         1 7SD       0.458600
      6 C09          2.2170     0.0000     1.1940 ca         1 7SD      -0.256600
      7 C10          1.4880    -0.0020     2.5130 c3         1 7SD       0.167300
      8 C12          0.6100    -1.6300     4.0980 c          1 7SD       0.708700
      9 C14          0.3720    -3.0190     4.5280 cc         1 7SD      -0.382900
     10 C15          0.7560    -4.1890     3.8330 cc         1 7SD       0.351200
     11 C19         -1.8390    -6.5650     6.1290 ca         1 7SD      -0.108300
     12 C20         -3.1670    -6.1980     6.0110 ca         1 7SD      -0.102000
     13 C22         -3.6630    -8.3120     5.0040 ca         1 7SD      -0.100300
     14 C23         -4.6560    -9.2660     4.3910 c3         1 7SD       0.124600
     15 C26         -6.6600   -11.1180     6.7470 cd         1 7SD      -0.354300
     16 C27         -5.3720   -11.5130     7.1220 cd         1 7SD       0.331200
     17 C29         -2.3340    -8.6770     5.1170 ca         1 7SD      -0.103500
     18 C31         -0.2620    -3.4230     5.6860 cd         1 7SD      -0.043300
     19 C03          2.2150    -0.0040    -1.1880 ca         1 7SD      -0.270300
     20 N06          4.2460    -0.0090     0.0110 nb         1 7SD      -0.721000
     21 C08          4.3730    -0.0010     2.4530 c3         1 7SD      -0.145400
     22 N11          1.2510    -1.3820     2.9390 ns         1 7SD      -0.581900
     23 O13          0.2280    -0.7060     4.7910 o          1 7SD      -0.627100
     24 N16          0.3670    -5.2200     4.5330 nd         1 7SD      -0.509800
     25 N17         -0.2700    -4.7660     5.6940 na         1 7SD       0.078400
     26 C21         -4.0780    -7.0720     5.4490 ca         1 7SD      -0.103500
     27 N24         -5.2320   -10.1110     5.4390 na         1 7SD       0.064400
     28 C25         -6.5450   -10.2560     5.7100 cc         1 7SD      -0.114300
     29 N28         -4.5140   -10.9070     6.3420 nc         1 7SD      -0.509800
     30 C30         -1.4220    -7.8040     5.6790 ca         1 7SD      -0.102000
     31 H011        -0.3610     0.8550     0.5580 hc         1 7SD       0.051033
     32 H013        -0.3610     0.0560    -1.0200 hc         1 7SD       0.051033
     33 H012        -0.3610    -0.9110     0.4620 hc         1 7SD       0.051033
     34 H052         4.5450    -0.8890    -2.7810 hn         1 7SD       0.436300
     35 H051         4.6580     0.8400    -2.7270 hn         1 7SD       0.436300
     36 H101         2.0880     0.5080     3.2570 h1         1 7SD       0.059700
     37 H102         0.5400     0.5100     2.4020 h1         1 7SD       0.059700
     38 H151         1.2780    -4.2240     2.8850 h4         1 7SD       0.047100
     39 H181        -1.3450    -4.9900     7.4740 h1         1 7SD       0.070200
     40 H182        -0.0550    -6.1750     7.2250 h1         1 7SD       0.070200
     41 H201        -3.4930    -5.2250     6.3600 ha         1 7SD       0.137500
     42 H232        -5.4450    -8.7030     3.9060 h1         1 7SD       0.065700
     43 H231        -4.1550    -9.8880     3.6590 h1         1 7SD       0.065700
     44 H271        -5.1270   -12.1990     7.9240 h4         1 7SD       0.047100
     45 H291        -2.0070    -9.6480     4.7640 ha         1 7SD       0.138000
     46 H311        -0.5640    -2.7790     6.5030 h4         1 7SD       0.191000
     47 H031         1.7010     0.1710    -2.1250 ha         1 7SD       0.145000
     48 H083         4.0860     0.8580     3.0470 hc         1 7SD       0.055700
     49 H082         5.4330     0.0470     2.2370 hc         1 7SD       0.055700
     50 H081         4.1570    -0.9090     3.0030 hc         1 7SD       0.055700
     51 H111         1.5650    -2.1420     2.3690 hn         1 7SD       0.315500
     52 H211        -5.1180    -6.7840     5.3570 ha         1 7SD       0.138000
     53 H251        -7.3620    -9.7700     5.1910 h4         1 7SD       0.167000
     54 H301        -0.3810    -8.0900     5.7670 ha         1 7SD       0.137500
     55 C18         -0.8450    -5.6120     6.7420 c3         1 7SD       0.121600
     56 H261        -7.5860   -11.4450     7.2040 ha         1 7SD       0.153000
@<TRIPOS>BOND
     1     4     3 1
     2     3    20 ar
     3     3    19 ar
     4    20     5 ar
     5    19     2 ar
     6     5    21 1
     7     5     6 ar
     8     2     6 ar
     9     2     1 1
    10     6     7 1
    11     7    22 1
    12    23     8 2
    13    22     8 1
    14     8     9 1
    15     9    10 1
    16     9    18 2
    17    10    24 2
    18    18    25 1
    19    24    25 1
    20    25    55 1
    21    55    11 1
    22    12    11 ar
    23    12    26 ar
    24    11    30 ar
    25    26    13 ar
    26    30    17 ar
    27    13    17 ar
    28    13    14 1
    29    14    27 1
    30    28    27 1
    31    28    15 2
    32    27    29 1
    33    15    16 1
    34    29    16 2
    35     1    31 1
    36     1    32 1
    37     1    33 1
    38     4    34 1
    39     4    35 1
    40     7    36 1
    41     7    37 1
    42    10    38 1
    43    55    39 1
    44    55    40 1
    45    12    41 1
    46    14    42 1
    47    14    43 1
    48    15    56 1
    49    16    44 1
    50    17    45 1
    51    18    46 1
    52    19    47 1
    53    21    48 1
    54    21    49 1
    55    21    50 1
    56    22    51 1
    57    26    52 1
    58    28    53 1
    59    30    54 1
@<TRIPOS>SUBSTRUCTURE
     1 7SD         1 TEMP              0 ****  ****    0 ROOT
