@<TRIPOS>MOLECULE
7SD
   56    59     1     0     0
SMALL
bcc


@<TRIPOS>ATOM
      1 C01          0.0000     0.0000     0.0000 c3         1 7SD       0.055200
      2 C02          1.5080     0.0000     0.0000 ca         1 7SD      -0.032300
      3 C04          3.6060    -0.0090    -1.1480 ca         1 7SD       0.512200
      4 N05          4.3290    -0.0200    -2.3340 nv         1 7SD      -0.659500
      5 C07          3.5970    -0.0000     1.1600 ca         1 7SD       0.405600
      6 C09          2.2170     0.0000     1.1940 ca         1 7SD      -0.251600
      7 C10          1.4880    -0.0020     2.5130 c3         1 7SD       0.108300
      8 C12          0.6100    -1.6300     4.0980 c          1 7SD       0.638700
      9 C14          0.3720    -3.0190     4.5280 cc         1 7SD      -0.399900
     10 C15          0.7560    -4.1890     3.8330 cc         1 7SD       0.413200
     11 C19         -1.8390    -6.5650     6.1290 ca         1 7SD      -0.120300
     12 C20         -3.1670    -6.1980     6.0110 ca         1 7SD      -0.072000
     13 C22         -3.6630    -8.3120     5.0040 ca         1 7SD      -0.113300
     14 C23         -4.6560    -9.2660     4.3910 c3         1 7SD       0.054600
     15 C26         -6.6600   -11.1180     6.7470 cc         1 7SD      -0.335300
     16 C27         -5.3720   -11.5130     7.1220 cc         1 7SD       0.393200
     17 C29         -2.3340    -8.6770     5.1170 ca         1 7SD      -0.073500
     18 C31         -0.2620    -3.4230     5.6860 cd         1 7SD      -0.177300
     19 C03          2.2150    -0.0040    -1.1880 ca         1 7SD      -0.238300
     20 N06          4.2460    -0.0090     0.0110 nb         1 7SD      -0.594000
     21 C08          4.3730    -0.0010     2.4530 c3         1 7SD      -0.050400
     22 N11          1.2510    -1.3820     2.9390 ns         1 7SD      -0.195900
     23 O13          0.2280    -0.7060     4.7910 o          1 7SD      -0.668100
     24 N16          0.3670    -5.2200     4.5330 nd         1 7SD      -0.649800
     25 N17         -0.2700    -4.7660     5.6940 na         1 7SD       0.505400
     26 C21         -4.0780    -7.0720     5.4490 ca         1 7SD      -0.073500
     27 N24         -5.2320   -10.1110     5.4390 na         1 7SD       0.486400
     28 C25         -6.5450   -10.2560     5.7100 cd         1 7SD      -0.249300
     29 N28         -4.5140   -10.9070     6.3420 nd         1 7SD      -0.649800
     30 C30         -1.4220    -7.8040     5.6790 ca         1 7SD      -0.072000
     31 H011        -0.3610     0.8550     0.5580 hc         1 7SD       0.015367
     32 H013        -0.3610     0.0560    -1.0200 hc         1 7SD       0.015367
     33 H012        -0.3610    -0.9110     0.4620 hc         1 7SD       0.015367
     34 H052         4.5450    -0.8890    -2.7810 hn         1 7SD       0.277300
     35 H051         4.6580     0.8400    -2.7270 hn         1 7SD       0.277300
     36 H101         2.0880     0.5080     3.2570 h1         1 7SD       0.035200
     37 H102         0.5400     0.5100     2.4020 h1         1 7SD       0.035200
     38 H151         1.2780    -4.2240     2.8850 h4         1 7SD       0.002100
     39 H181        -1.3450    -4.9900     7.4740 h1         1 7SD       0.036700
     40 H182        -0.0550    -6.1750     7.2250 h1         1 7SD       0.036700
     41 H201        -3.4930    -5.2250     6.3600 ha         1 7SD       0.111000
     42 H232        -5.4450    -8.7030     3.9060 h1         1 7SD       0.033200
     43 H231        -4.1550    -9.8880     3.6590 h1         1 7SD       0.033200
     44 H271        -5.1270   -12.1990     7.9240 h4         1 7SD       0.002100
     45 H291        -2.0070    -9.6480     4.7640 ha         1 7SD       0.111000
     46 H311        -0.5640    -2.7790     6.5030 h4         1 7SD       0.161000
     47 H031         1.7010     0.1710    -2.1250 ha         1 7SD       0.123000
     48 H083         4.0860     0.8580     3.0470 hc         1 7SD       0.018700
     49 H082         5.4330     0.0470     2.2370 hc         1 7SD       0.018700
     50 H081         4.1570    -0.9090     3.0030 hc         1 7SD       0.018700
     51 H111         1.5650    -2.1420     2.3690 hn         1 7SD       0.177500
     52 H211        -5.1180    -6.7840     5.3570 ha         1 7SD       0.111000
     53 H251        -7.3620    -9.7700     5.1910 h4         1 7SD       0.142000
     54 H301        -0.3810    -8.0900     5.7670 ha         1 7SD       0.111000
     55 C18         -0.8450    -5.6120     6.7420 c3         1 7SD       0.050600
     56 H261        -7.5860   -11.4450     7.2040 ha         1 7SD       0.133000
@<TRIPOS>BOND
     1     1     2 1   
     2     1    31 1   
     3     1    32 1   
     4     1    33 1   
     5     2     6 ar  
     6     2    19 ar  
     7     3     4 1   
     8     3    19 ar  
     9     3    20 ar  
    10     4    34 1   
    11     4    35 1   
    12     5     6 ar  
    13     5    20 ar  
    14     5    21 1   
    15     6     7 1   
    16     7    22 1   
    17     7    36 1   
    18     7    37 1   
    19     8     9 1   
    20     8    22 1   
    21     8    23 2   
    22     9    10 1   
    23     9    18 2   
    24    10    24 2   
    25    10    38 1   
    26    11    12 ar  
    27    11    30 ar  
    28    11    55 1   
    29    12    26 ar  
    30    12    41 1   
    31    13    14 1   
    32    13    17 ar  
    33    13    26 ar  
    34    14    27 1   
    35    14    42 1   
    36    14    43 1   
    37    15    16 1   
    38    15    28 2   
    39    15    56 1   
    40    16    29 2   
    41    16    44 1   
    42    17    30 ar  
    43    17    45 1   
    44    18    25 1   
    45    18    46 1   
    46    19    47 1   
    47    21    48 1   
    48    21    49 1   
    49    21    50 1   
    50    22    51 1   
    51    24    25 1   
    52    25    55 1   
    53    26    52 1   
    54    27    28 1   
    55    27    29 1   
    56    28    53 1   
    57    30    54 1   
    58    39    55 1   
    59    40    55 1   
@<TRIPOS>SUBSTRUCTURE
     1 7SD         1 TEMP              0 ****  ****    0 ROOT
