@<TRIPOS>MOLECULE
molecule
   25    27     1     0     0
SMALL
bcc


@<TRIPOS>ATOM
      1 C            0.0000     0.0000     0.0000 c3         1 7SI      -0.078400
      2 O            3.5220     2.4890     2.4280 oh         1 7SI      -0.511600
      3 C1           1.5480     0.0000     0.0000 c3         1 7SI      -0.078400
      4 O1          -1.9730     2.4900     2.4280 oh         1 7SI      -0.511600
      5 C2           1.9260     0.0000     1.5150 c3         1 7SI      -0.019400
      6 C3           0.7730    -0.9020     2.0930 c3         1 7SI      -0.085400
      7 C4          -0.3790     0.0010     1.5160 c3         1 7SI      -0.019400
      8 C5           0.0800     1.3700     2.0180 ca         1 7SI      -0.089300
      9 C6          -0.6140     2.4910     2.4300 ca         1 7SI       0.111600
     10 C7           0.0840     3.6190     2.8430 ca         1 7SI      -0.162000
     11 C8           1.4650     3.6190     2.8430 ca         1 7SI      -0.162000
     12 C9           2.1620     2.4900     2.4280 ca         1 7SI       0.111600
     13 C10          1.4680     1.3700     2.0180 ca         1 7SI      -0.089300
     14 H           -0.3800     0.8890    -0.4880 hc         1 7SI       0.050200
     15 HA          -0.3800    -0.8900    -0.4870 hc         1 7SI       0.050200
     16 HO           3.8370     2.6870     3.2940 ho         1 7SI       0.416000
     17 H1           1.9290     0.8900    -0.4870 hc         1 7SI       0.050200
     18 H1A          1.9290    -0.8900    -0.4870 hc         1 7SI       0.050200
     19 HO1         -2.2880     2.6880     3.2950 ho         1 7SI       0.416000
     20 H2           2.9370    -0.2970     1.7650 hc         1 7SI       0.083700
     21 H3           0.7720    -1.8930     1.6560 hc         1 7SI       0.054700
     22 H3A          0.7730    -0.9210     3.1760 hc         1 7SI       0.054700
     23 H4          -1.3910    -0.2950     1.7650 hc         1 7SI       0.083700
     24 H7          -0.4560     4.5000     3.1670 ha         1 7SI       0.138000
     25 H8           2.0060     4.5000     3.1660 ha         1 7SI       0.138000
@<TRIPOS>BOND
     1     1     3 1   
     2     1     7 1   
     3     2    12 1   
     4     3     5 1   
     5     4     9 1   
     6     5     6 1   
     7     5    13 1   
     8     6     7 1   
     9     7     8 1   
    10     8     9 ar  
    11     8    13 ar  
    12     9    10 ar  
    13    10    11 ar  
    14    11    12 ar  
    15    12    13 ar  
    16     1    14 1   
    17     1    15 1   
    18     2    16 1   
    19     3    17 1   
    20     3    18 1   
    21     4    19 1   
    22     5    20 1   
    23     6    21 1   
    24     6    22 1   
    25     7    23 1   
    26    10    24 1   
    27    11    25 1   
@<TRIPOS>SUBSTRUCTURE
     1 7SI         1 TEMP              0 ****  ****    0 ROOT
