@<TRIPOS>MOLECULE
molecule
   46    48     1     0     0
SMALL
bcc


@<TRIPOS>ATOM
      1 C01          0.0000     0.0000     0.0000 c3         1 7SJ       0.137700
      2 C04          3.4300    -0.0000     1.2730 ca         1 7SJ      -0.197300
      3 C06          5.5200     0.0000     2.6420 c          1 7SJ       0.584500
      4 C10          2.8940    -0.1260     6.0190 c3         1 7SJ       0.182700
      5 C11          3.6840    -0.1560     7.3020 ca         1 7SJ      -0.190600
      6 C12          5.0670    -0.1830     7.2740 ca         1 7SJ      -0.067000
      7 C13          5.7550    -0.2100     8.4790 ca         1 7SJ      -0.249300
      8 C14          5.0440    -0.2100     9.6660 ca         1 7SJ       0.417200
      9 C17          1.5530    -0.1260     8.5830 cc         1 7SJ      -0.128800
     10 C18          0.7090    -1.0510     8.0400 cd         1 7SJ      -0.343300
     11 C19         -0.5990    -0.6490     8.3120 cd         1 7SJ       0.328200
     12 N21          0.7820     0.8250     9.1840 na         1 7SJ       0.089400
     13 C22          1.2680     2.0090     9.8950 c3         1 7SJ       0.079000
     14 C23          0.8090     3.2700     9.1610 c3         1 7SJ      -0.104100
     15 C24          0.7050     2.0160    11.3190 c3         1 7SJ      -0.104100
     16 O02          1.4300     0.0000     0.0000 os         1 7SJ      -0.443100
     17 C03          2.0450     0.0000     1.2100 ca         1 7SJ       0.615600
     18 C05          4.0530    -0.0010     2.5260 ca         1 7SJ      -0.166600
     19 C08          3.2360    -0.0020     3.6720 ca         1 7SJ       0.033800
     20 O09          3.7880    -0.0020     4.9110 os         1 7SJ      -0.298900
     21 N15          3.7270    -0.1860     9.6670 nb         1 7SJ      -0.680000
     22 C16          3.0320    -0.1520     8.5360 ca         1 7SJ       0.489800
     23 N20         -0.5590     0.4680     8.9910 nc         1 7SJ      -0.503800
     24 C25          1.8580    -0.0030     3.5140 ca         1 7SJ       0.366200
     25 N26          1.3160    -0.0020     2.3130 nb         1 7SJ      -0.719000
     26 H012        -0.3610     0.8850     0.5110 h1         1 7SJ       0.047367
     27 H013        -0.3610    -0.8840     0.5110 h1         1 7SJ       0.047367
     28 H011        -0.3610    -0.0000    -1.0210 h1         1 7SJ       0.047367
     29 H041         4.0130     0.1860     0.3780 ha         1 7SJ       0.158000
     30 H1           6.1350     0.0010     1.7500 h4         1 7SJ       0.007200
     31 H101         2.2170     0.7200     6.0320 h1         1 7SJ       0.055700
     32 H102         2.3250    -1.0420     5.9240 h1         1 7SJ       0.055700
     33 H121         5.6020    -0.1810     6.3310 ha         1 7SJ       0.179000
     34 H131         6.8380    -0.2300     8.4900 ha         1 7SJ       0.145000
     35 H141         5.5780    -0.2340    10.6080 h4         1 7SJ       0.027100
     36 H181         1.0030    -1.9390     7.4920 ha         1 7SJ       0.154000
     37 H191        -1.4970    -1.1740     8.0100 h4         1 7SJ       0.048100
     38 H221         2.3500     1.9880     9.9350 h1         1 7SJ       0.079700
     39 H231        -0.2730     3.3300     9.1880 hc         1 7SJ       0.048533
     40 H232         1.2310     4.1430     9.6430 hc         1 7SJ       0.048533
     41 H233         1.1420     3.2290     8.1310 hc         1 7SJ       0.048533
     42 H241         0.8520     1.0420    11.7700 hc         1 7SJ       0.048533
     43 H242         1.2190     2.7670    11.9060 hc         1 7SJ       0.048533
     44 H243        -0.3530     2.2440    11.2880 hc         1 7SJ       0.048533
     45 H251         1.2200    -0.0040     4.3890 h4         1 7SJ       0.036100
     46 O1           6.0420    -0.0010     3.7370 o          1 7SJ      -0.506100
@<TRIPOS>BOND
     1    15    13 1
     2    23    12 1
     3    23    11 2
     4    13    12 1
     5    13    14 1
     6    12     9 1
     7    11    10 1
     8     9    10 2
     9     9    22 1
    10    21    22 ar
    11    21     8 ar
    12    22     5 ar
    13     2    18 ar
    14     2    17 ar
    15     3    18 1
    16    16    17 1
    17    16     1 1
    18    18    19 ar
    19    17    25 ar
    20     8     7 ar
    21    19    20 1
    22    19    24 ar
    23    25    24 ar
    24    20     4 1
    25     5     4 1
    26     5     6 ar
    27     7     6 ar
    28     1    26 1
    29     1    27 1
    30     1    28 1
    31     2    29 1
    32     3    30 1
    33     4    31 1
    34     4    32 1
    35     6    33 1
    36     7    34 1
    37     8    35 1
    38    10    36 1
    39    11    37 1
    40    13    38 1
    41    14    39 1
    42    14    40 1
    43    14    41 1
    44    15    42 1
    45    15    43 1
    46    15    44 1
    47    24    45 1
    48     3    46 2
@<TRIPOS>SUBSTRUCTURE
     1 7SJ         1 TEMP              0 ****  ****    0 ROOT
