@<TRIPOS>MOLECULE
molecule
   55    58     1     0     0
SMALL
bcc


@<TRIPOS>ATOM
      1 C10          0.0000     0.0000     0.0000 c          1 7SK       0.873600
      2 C13          2.5390    -1.2490    -1.9580 cc         1 7SK      -0.142400
      3 C15          3.6140     0.9340    -2.5050 ca         1 7SK      -0.099000
      4 C17          3.0770     2.0930    -4.5410 ca         1 7SK       0.124100
      5 C20          1.4180     2.5580    -6.7320 c3         1 7SK      -0.125400
      6 C21          1.4230     1.1280    -6.1860 c3         1 7SK      -0.026100
      7 C22          2.2000     1.0800    -4.8950 ca         1 7SK      -0.165300
      8 C24          2.8980    -2.6470    -2.2440 ca         1 7SK      -0.077800
      9 C26          3.6820    -4.6540    -3.2920 ca         1 7SK      -0.176000
     10 C28          2.7530    -4.7570    -1.0780 ca         1 7SK      -0.141000
     11 N02          1.9990    -2.4960    -0.1950 na         1 7SK      -0.045400
     12 C03          2.0090    -1.2310    -0.7110 cd         1 7SK       0.059700
     13 C04          1.5060     0.0000     0.0000 c3         1 7SK       0.076300
     14 O05          1.9830     0.0000     1.3470 os         1 7SK      -0.419600
     15 C06          2.1760     1.3050     1.8950 c3         1 7SK       0.158800
     16 C07          0.8490     2.0640     1.8860 c3         1 7SK      -0.105767
     17 C08          2.6850     1.1840     3.3330 c3         1 7SK      -0.105767
     18 C09          3.2040     2.0640     1.0540 c3         1 7SK      -0.105767
     19 O11         -0.6040    -0.0920     1.0420 o          1 7SK      -0.826800
     20 O12         -0.6710     0.1070    -1.1580 o          1 7SK      -0.826800
     21 C14          2.7280    -0.0840    -2.8560 ca         1 7SK      -0.000800
     22 C16          3.7830     2.0140    -3.3440 ca         1 7SK      -0.165000
     23 O18          3.2730     3.1770    -5.3360 os         1 7SK      -0.341900
     24 C19          2.8560     3.0910    -6.6990 c3         1 7SK       0.143400
     25 C23          2.0240    -0.0040    -4.0540 ca         1 7SK      -0.062000
     26 C25          3.4730    -3.2930    -3.3370 ca         1 7SK      -0.088000
     27 C27          3.3220    -5.3810    -2.1660 ca         1 7SK      -0.136000
     28 C29          2.5330    -3.3830    -1.1040 ca         1 7SK      -0.041200
     29 H202         1.0710     2.5420    -7.7580 hc         1 7SK       0.052700
     30 H212         0.4020     0.8270    -5.9890 hc         1 7SK       0.052700
     31 H211         1.9080     0.4810    -6.9070 hc         1 7SK       0.052700
     32 H261         4.1280    -5.1590    -4.1400 ha         1 7SK       0.110000
     33 H281         2.4760    -5.3340    -0.2050 ha         1 7SK       0.116000
     34 H012         2.2180    -2.5590     1.8850 h1         1 7SK       0.056033
     35 H013         0.5570    -2.3470     1.3140 h1         1 7SK       0.056033
     36 H011         1.3430    -3.9260     1.1840 h1         1 7SK       0.056033
     37 H041         1.8670     0.8850    -0.5110 h1         1 7SK       0.065700
     38 H071         0.9770     3.0230     2.3740 hc         1 7SK       0.038589
     39 H073         0.5290     2.2200     0.8630 hc         1 7SK       0.038589
     40 H072         0.1000     1.4870     2.4150 hc         1 7SK       0.038589
     41 H083         2.8030     2.1730     3.7590 hc         1 7SK       0.038589
     42 H082         1.9720     0.6200     3.9220 hc         1 7SK       0.038589
     43 H081         3.6400     0.6730     3.3370 hc         1 7SK       0.038589
     44 H093         2.7090     2.5270     0.2080 hc         1 7SK       0.038589
     45 H092         3.6730     2.8300     1.6600 hc         1 7SK       0.038589
     46 H091         3.9600     1.3740     0.6970 hc         1 7SK       0.038589
     47 H161         4.4700     2.8050    -3.0710 ha         1 7SK       0.128000
     48 H192         3.5020     2.3970    -7.2230 h1         1 7SK       0.045200
     49 H191         2.8740     4.0820    -7.1370 h1         1 7SK       0.045200
     50 H231         1.3380    -0.7960    -4.3310 ha         1 7SK       0.146000
     51 H251         3.7550    -2.7280    -4.2170 ha         1 7SK       0.122000
     52 H271         3.4900    -6.4510    -2.1420 ha         1 7SK       0.110000
     53 C01          1.4970    -2.8550     1.1340 c3         1 7SK       0.037600
     54 H151         4.2390     0.8290    -1.6270 ha         1 7SK       0.134000
     55 H201         0.7970     3.1770    -6.0960 hc         1 7SK       0.052700
@<TRIPOS>BOND
     1    18    15 1
     2    17    15 1
     3    16    15 1
     4    15    14 1
     5    27     9 ar
     6    27    10 ar
     7     9    26 ar
     8     3    22 ar
     9     3    21 ar
    10    10    28 ar
    11    26     8 ar
    12    22     4 ar
    13    28     8 ar
    14    28    11 1
    15     8     2 1
    16    14    13 1
    17    11    53 1
    18    11    12 1
    19     2    21 1
    20     2    12 2
    21    21    25 ar
    22    12    13 1
    23     4    23 1
    24     4     7 ar
    25    13     1 1
    26    23    24 1
    27    25     7 ar
    28     7     6 1
    29    24     5 1
    30     1    19 1
    31     1    20 1
    32     6     5 1
    33     3    54 1
    34     5    55 1
    35     5    29 1
    36     6    30 1
    37     6    31 1
    38     9    32 1
    39    10    33 1
    40    53    34 1
    41    53    35 1
    42    53    36 1
    43    13    37 1
    44    16    38 1
    45    16    39 1
    46    16    40 1
    47    17    41 1
    48    17    42 1
    49    17    43 1
    50    18    44 1
    51    18    45 1
    52    18    46 1
    53    22    47 1
    54    24    48 1
    55    24    49 1
    56    25    50 1
    57    26    51 1
    58    27    52 1
@<TRIPOS>SUBSTRUCTURE
     1 7SK         1 TEMP              0 ****  ****    0 ROOT
