@<TRIPOS>MOLECULE
7SM
   68    71     1     0     0
SMALL
bcc


@<TRIPOS>ATOM
      1 C4           0.0000     0.0000     0.0000 ca         1 7SM      -0.068000
      2 C5           1.3890     0.0000     0.0000 ca         1 7SM      -0.169300
      3 C6           2.1920    -0.0430    -1.2780 c3         1 7SM       0.096300
      4 C7           4.1430    -0.1070     2.3940 c3         1 7SM       0.206400
      5 C8           5.5960    -0.3480     2.0660 c3         1 7SM      -0.041400
      6 C10          7.6530     0.6800     1.2260 c3         1 7SM      -0.003400
      7 C13          1.1750     1.8610    -2.5720 cx         1 7SM      -0.071300
      8 C15          0.9770    -1.8320    -3.3840 ca         1 7SM      -0.129600
      9 C17          1.6100    -2.3870    -4.4780 ca         1 7SM      -0.069500
     10 C20          0.5100    -4.0050    -2.5340 ca         1 7SM      -0.101000
     11 C21          1.2340    -6.0990    -3.7370 cp         1 7SM       0.017000
     12 C22          1.9000     2.8330    -1.6510 cx         1 7SM      -0.083400
     13 C24          1.5590    -6.6590    -4.9610 ca         1 7SM      -0.142000
     14 C26          0.8580    -8.3120    -2.8430 ca         1 7SM      -0.056000
     15 C28          1.5750    -8.0470    -5.1110 ca         1 7SM       0.158100
     16 N            1.4130     0.4080    -2.4130 n          1 7SM      -0.046800
     17 C            2.0560     0.0000     1.2070 ca         1 7SM       0.176100
     18 O            3.4110    -0.0210     1.1720 os         1 7SM      -0.304900
     19 C1           1.3510     0.0310     2.4070 ca         1 7SM      -0.199000
     20 O1           8.0870     3.8720     1.3470 o          1 7SM      -0.904800
     21 C2          -0.0280     0.0450     2.4050 ca         1 7SM      -0.059000
     22 O2           9.9960     2.8200     1.6630 o          1 7SM      -0.904800
     23 C3          -0.7090     0.0240     1.1920 ca         1 7SM      -0.152000
     24 O3           0.0850     0.1150    -4.1220 o          1 7SM      -0.668100
     25 O4           1.9340    -8.5470    -6.3310 os         1 7SM      -0.324900
     26 C9           6.1550     0.8500     1.3260 c3         1 7SM      -0.033400
     27 C11          8.3170     1.7400     0.3640 c3         1 7SM      -0.154400
     28 C12          8.8410     2.8920     1.1820 c          1 7SM       1.001600
     29 C14          0.8280    -0.3530    -3.2950 c          1 7SM       0.588700
     30 C16          0.4080    -2.6190    -2.4260 ca         1 7SM      -0.069500
     31 C18          1.7310    -3.7790    -4.5880 ca         1 7SM      -0.101000
     32 C19          1.1840    -4.5960    -3.6030 cp         1 7SM      -0.031000
     33 C23          2.3860     2.6380    -3.0870 cx         1 7SM      -0.083400
     34 C25          0.8460    -6.9310    -2.6960 ca         1 7SM      -0.141000
     35 C27          1.2160    -8.8660    -4.0540 ca         1 7SM      -0.205000
     36 C29          2.0170    -9.9430    -6.5850 c3         1 7SM       0.259700
     37 H3          -0.5350    -0.0160    -0.9420 ha         1 7SM       0.110000
     38 H5           3.0620     0.5940    -1.1710 h1         1 7SM       0.050700
     39 H4           2.5190    -1.0610    -1.4560 h1         1 7SM       0.050700
     40 H7           4.0430     0.8200     2.9460 h1         1 7SM      -0.001800
     41 H6           3.7630    -0.9290     2.9890 h1         1 7SM      -0.001800
     42 H8           5.6830    -1.2300     1.4430 hc         1 7SM       0.020700
     43 H9           6.1520    -0.4980     2.9830 hc         1 7SM       0.020700
     44 H12          8.0760     0.7270     2.2220 hc         1 7SM      -0.000800
     45 H13          7.8650    -0.2950     0.8030 hc         1 7SM      -0.000800
     46 H16          0.2300     2.2030    -2.9760 h1         1 7SM       0.090700
     47 H18          2.0340    -1.7450    -5.2410 ha         1 7SM       0.115500
     48 H20          0.0600    -4.6340    -1.7750 ha         1 7SM       0.110500
     49 H22          2.5160     2.3790    -0.8840 hc         1 7SM       0.054700
     50 H21          1.3840     3.7650    -1.4550 hc         1 7SM       0.054700
     51 H25          1.7580    -6.0200    -5.8130 ha         1 7SM       0.126000
     52 H27          0.5650    -8.9500    -2.0180 ha         1 7SM       0.100000
     53 H            1.8880     0.0390     3.3480 ha         1 7SM       0.121000
     54 H1          -0.5750     0.0660     3.3390 ha         1 7SM       0.098000
     55 H2          -1.7930     0.0290     1.1780 ha         1 7SM       0.102000
     56 H11          5.9260     1.7570     1.8720 hc         1 7SM       0.026700
     57 H10          5.7250     0.9010     0.3330 hc         1 7SM       0.026700
     58 H14          7.5930     2.1160    -0.3490 hc         1 7SM       0.002200
     59 H15          9.1400     1.2890    -0.1760 hc         1 7SM       0.002200
     60 H17         -0.1010    -2.1710    -1.5810 ha         1 7SM       0.115500
     61 H19          2.2430    -4.2160    -5.4370 ha         1 7SM       0.110500
     62 H23          2.1650     3.4490    -3.7690 hc         1 7SM       0.054700
     63 H24          3.2980     2.0630    -3.1980 hc         1 7SM       0.054700
     64 H26          0.5770    -6.4990    -1.7400 ha         1 7SM       0.112000
     65 H28          1.2290    -9.9420    -4.1740 ha         1 7SM       0.111000
     66 H31          2.3430   -10.1060    -7.6050 h1         1 7SM      -0.007967
     67 H30          2.7270   -10.3930    -5.9030 h1         1 7SM      -0.007967
     68 H29          1.0430   -10.3950    -6.4420 h1         1 7SM      -0.007967
@<TRIPOS>BOND
     1     1     2 ar  
     2     1    23 ar  
     3     1    37 1   
     4     2     3 1   
     5     2    17 ar  
     6     3    16 1   
     7     3    38 1   
     8     3    39 1   
     9     4     5 1   
    10     4    18 1   
    11     4    40 1   
    12     4    41 1   
    13     5    26 1   
    14     5    42 1   
    15     5    43 1   
    16     6    26 1   
    17     6    27 1   
    18     6    44 1   
    19     6    45 1   
    20     7    12 1   
    21     7    16 1   
    22     7    33 1   
    23     7    46 1   
    24     8     9 ar  
    25     8    29 1   
    26     8    30 ar  
    27     9    31 ar  
    28     9    47 1   
    29    10    30 ar  
    30    10    32 ar  
    31    10    48 1   
    32    11    13 ar  
    33    11    32 1   
    34    11    34 ar  
    35    12    33 1   
    36    12    49 1   
    37    12    50 1   
    38    13    15 ar  
    39    13    51 1   
    40    14    34 ar  
    41    14    35 ar  
    42    14    52 1   
    43    15    25 1   
    44    15    35 ar  
    45    16    29 1   
    46    17    18 1   
    47    17    19 ar  
    48    19    21 ar  
    49    19    53 1   
    50    20    28 1   
    51    21    23 ar  
    52    21    54 1   
    53    22    28 1   
    54    23    55 1   
    55    24    29 2   
    56    25    36 1   
    57    26    56 1   
    58    26    57 1   
    59    27    28 1   
    60    27    58 1   
    61    27    59 1   
    62    30    60 1   
    63    31    32 ar  
    64    31    61 1   
    65    33    62 1   
    66    33    63 1   
    67    34    64 1   
    68    35    65 1   
    69    36    66 1   
    70    36    67 1   
    71    36    68 1   
@<TRIPOS>SUBSTRUCTURE
     1 7SM         1 TEMP              0 ****  ****    0 ROOT
