@<TRIPOS>MOLECULE
molecule
   42    44     1     0     0
SMALL
bcc


@<TRIPOS>ATOM
      1 C1           0.0000     0.0000     0.0000 ca         1 7SP      -0.100500
      2 C2           1.3830     0.0000     0.0000 ca         1 7SP      -0.079000
      3 C3           2.0740     0.0000     1.1970 ca         1 7SP      -0.100500
      4 C4           1.3830     0.0010     2.3950 ca         1 7SP      -0.110000
      5 C5           0.0000     0.0020     2.3940 ca         1 7SP      -0.176300
      6 C6          -0.6910     0.0070     1.1980 ca         1 7SP      -0.110000
      7 C7          -0.7520     0.0020     3.7000 c3         1 7SP       0.091800
      8 C8          -1.2180    -1.3970     4.0110 c          1 7SP       0.666100
      9 O9          -2.3650    -1.7200     3.7820 o          1 7SP      -0.568100
     10 N10         -0.3610    -2.2900     4.5450 ns         1 7SP      -0.320900
     11 N11         -0.7930    -3.5910     4.8350 n2         1 7SP      -0.454300
     12 C12          0.0340    -4.4500     5.3500 ce         1 7SP       0.470800
     13 C13         -0.4200    -5.8160     5.6540 ca         1 7SP      -0.190900
     14 C14          0.4790    -6.7770     6.0990 ca         1 7SP      -0.042000
     15 C15          0.0540    -8.0650     6.3870 ca         1 7SP      -0.216000
     16 C16         -1.2640    -8.4380     6.2440 ca         1 7SP       0.186100
     17 C17         -2.2250    -7.5080     5.7970 ca         1 7SP      -0.069000
     18 C18         -1.8260    -6.1840     5.4990 ca         1 7SP       0.015000
     19 C19         -2.7790    -5.2560     5.0590 ca         1 7SP      -0.145000
     20 C20         -4.0810    -5.6390     4.9280 ca         1 7SP      -0.100000
     21 C21         -4.4770    -6.9400     5.2250 ca         1 7SP      -0.133000
     22 C22         -3.5740    -7.8700     5.6440 ca         1 7SP      -0.088000
     23 O23         -1.6400    -9.7080     6.5370 oh         1 7SP      -0.506100
     24 N24         -1.9160     0.8920     3.5930 nz         1 7SP      -0.795600
     25 H1          -0.5410    -0.0460    -0.9370 ha         1 7SP       0.161000
     26 H2           1.9240    -0.0010    -0.9380 ha         1 7SP       0.162000
     27 H3           3.1570     0.0210     1.1970 ha         1 7SP       0.161000
     28 H4           1.9240     0.0420     3.3320 ha         1 7SP       0.131500
     29 H6          -1.7740    -0.0100     1.1980 ha         1 7SP       0.131500
     30 H7          -0.1010     0.3510     4.4920 hx         1 7SP       0.116700
     31 HN10         0.5770    -2.0140     4.7610 hn         1 7SP       0.300500
     32 H12          1.0580    -4.1610     5.5550 h4         1 7SP      -0.006200
     33 H14          1.5240    -6.5170     6.2220 ha         1 7SP       0.134000
     34 H15          0.7750    -8.7950     6.7320 ha         1 7SP       0.148000
     35 H19         -2.4830    -4.2410     4.8250 ha         1 7SP       0.181000
     36 H20         -4.8180    -4.9190     4.5960 ha         1 7SP       0.133000
     37 H21         -5.5180    -7.2200     5.1120 ha         1 7SP       0.138000
     38 H22         -3.8970    -8.8780     5.8710 ha         1 7SP       0.154000
     39 HO23        -1.4300    -9.8990     7.4360 ho         1 7SP       0.435000
     40 HN24        -2.3020     1.0460     4.5040 hn         1 7SP       0.464467
     41 HN2A        -2.6060     0.4700     3.0050 hn         1 7SP       0.464467
     42 H243        -1.6320     1.7670     3.2000 hn         1 7SP       0.464467
@<TRIPOS>BOND
     1     6     1 ar  
     2     1     2 ar  
     3     1    25 1   
     4     3     2 ar  
     5     2    26 1   
     6     4     3 ar  
     7     3    27 1   
     8     5     4 ar  
     9     4    28 1   
    10     7     5 1   
    11     5     6 ar  
    12     6    29 1   
    13    24     7 1   
    14     7     8 1   
    15     7    30 1   
    16     8     9 2   
    17     8    10 1   
    18    10    11 1   
    19    10    31 1   
    20    11    12 2   
    21    12    13 1   
    22    12    32 1   
    23    14    13 ar  
    24    13    18 ar  
    25    14    15 ar  
    26    14    33 1   
    27    15    16 ar  
    28    15    34 1   
    29    16    17 ar  
    30    16    23 1   
    31    18    17 ar  
    32    17    22 ar  
    33    18    19 ar  
    34    19    20 ar  
    35    19    35 1   
    36    20    21 ar  
    37    20    36 1   
    38    22    21 ar  
    39    21    37 1   
    40    22    38 1   
    41    23    39 1   
    42    24    40 1   
    43    24    41 1   
    44    42    24 1   
@<TRIPOS>SUBSTRUCTURE
     1 7SP         1 TEMP              0 ****  ****    0 ROOT
