@<TRIPOS>MOLECULE
7SP
   42    45     1     0     0
SMALL
bcc


@<TRIPOS>ATOM
      1 C1           0.0000     0.0000     0.0000 ca         1 7SP      -0.067500
      2 C2           1.3830     0.0000     0.0000 ca         1 7SP      -0.048000
      3 C3           2.0740     0.0000     1.1970 ca         1 7SP      -0.067500
      4 C4           1.3830     0.0010     2.3950 ca         1 7SP      -0.082500
      5 C5           0.0000     0.0020     2.3940 ca         1 7SP      -0.181000
      6 C6          -0.6910     0.0070     1.1980 ca         1 7SP      -0.082500
      7 C7          -0.7520     0.0020     3.7000 c3         1 7SP      -0.225000
      8 C8          -1.2180    -1.3970     4.0110 c2         1 7SP       0.195000
      9 O9          -2.3650    -1.7200     3.7820 o          1 7SP      -0.393000
     10 N10         -0.3610    -2.2900     4.5450 ns         1 7SP       0.157000
     11 N11         -0.7930    -3.5910     4.8350 n2         1 7SP      -0.097000
     12 C12          0.0340    -4.4500     5.3500 c2         1 7SP      -0.389000
     13 C13         -0.4200    -5.8160     5.6540 c3         1 7SP      -0.194000
     14 C14          0.4790    -6.7770     6.0990 c2         1 7SP       0.107000
     15 C15          0.0540    -8.0650     6.3870 c2         1 7SP      -0.253000
     16 C16         -1.2640    -8.4380     6.2440 c2         1 7SP       0.235000
     17 C17         -2.2250    -7.5080     5.7970 ca         1 7SP      -0.114000
     18 C18         -1.8260    -6.1840     5.4990 ca         1 7SP       0.019000
     19 C19         -2.7790    -5.2560     5.0590 ca         1 7SP      -0.172000
     20 C20         -4.0810    -5.6390     4.9280 ca         1 7SP      -0.034000
     21 C21         -4.4770    -6.9400     5.2250 ca         1 7SP      -0.112000
     22 C22         -3.5740    -7.8700     5.6440 ca         1 7SP      -0.041000
     23 O23         -1.6400    -9.7080     6.5370 oh         1 7SP      -0.235000
     24 N24         -1.9160     0.8920     3.5930 nz         1 7SP       0.856000
     25 H1          -0.5420    -0.0320    -0.9380 ha         1 7SP       0.125500
     26 H2           1.9240     0.0010    -0.9380 ha         1 7SP       0.125000
     27 H3           3.1570     0.0380     1.1970 ha         1 7SP       0.125500
     28 H4           1.9240     0.0510     3.3320 ha         1 7SP       0.108000
     29 H6          -1.7740    -0.0230     1.1980 ha         1 7SP       0.108000
     30 H7          -0.1010     0.3510     4.4920 hx         1 7SP       0.129000
     31 HN10         0.5740    -2.0120     4.7700 hn         1 7SP       0.077000
     32 H12         -0.0900    -5.2330     4.6110 DU         1 7SP       0.343000
     33 H14          1.5240    -6.5170     6.2220 ha         1 7SP       0.121000
     34 H15          0.7750    -8.7950     6.7320 ha         1 7SP       0.133000
     35 H19         -2.4830    -4.2410     4.8250 ha         1 7SP       0.177000
     36 H20         -4.8180    -4.9190     4.5960 ha         1 7SP       0.106000
     37 H21         -5.5180    -7.2200     5.1120 ha         1 7SP       0.114000
     38 H22         -3.8970    -8.8780     5.8710 ha         1 7SP       0.124000
     39 HO23        -1.1470   -10.3120     6.0060 ho         1 7SP       0.224000
     40 HN24        -2.3020     1.0460     4.5040 hn         1 7SP       0.026333
     41 HN2A        -2.6060     0.4700     3.0050 hn         1 7SP       0.026333
     42 H243        -1.6310     1.7670     3.1990 hn         1 7SP       0.026333
@<TRIPOS>BOND
     1     1     2 1   
     2     1     6 1   
     3     1    25 1   
     4     2     3 1   
     5     2    26 1   
     6     3     4 1   
     7     3    27 1   
     8     4     5 1   
     9     4    28 1   
    10     5     6 1   
    11     5     7 1   
    12     6    29 1   
    13     7     8 1   
    14     7    24 1   
    15     7    30 1   
    16     8     9 1   
    17     8    10 1   
    18    10    11 1   
    19    10    31 1   
    20    11    12 1   
    21    12    13 1   
    22    12    32 1   
    23    13    14 1   
    24    13    18 1   
    25    13    32 1   
    26    14    15 1   
    27    14    33 1   
    28    15    16 1   
    29    15    34 1   
    30    16    17 1   
    31    16    23 1   
    32    17    18 1   
    33    17    22 1   
    34    18    19 1   
    35    19    20 1   
    36    19    35 1   
    37    20    21 1   
    38    20    36 1   
    39    21    22 1   
    40    21    37 1   
    41    22    38 1   
    42    23    39 1   
    43    24    40 1   
    44    24    41 1   
    45    24    42 1   
@<TRIPOS>SUBSTRUCTURE
     1 7SP         1 TEMP              0 ****  ****    0 ROOT
