@<TRIPOS>MOLECULE
7SS
   68    71     1     0     0
SMALL
bcc


@<TRIPOS>ATOM
      1 C4           0.0000     0.0000     0.0000 ca         1 7SS      -0.104000
      2 C5           1.3820     0.0000     0.0000 ca         1 7SS      -0.156300
      3 C6           2.1370     0.0010    -1.3040 c3         1 7SS       0.067300
      4 C7           4.0790     0.4410     2.4010 c3         1 7SS       0.187400
      5 C8           4.6280    -0.7700     3.1600 c3         1 7SS      -0.062400
      6 C10          6.0280    -1.4920     5.0980 c3         1 7SS      -0.016400
      7 C13          0.1720     1.0780    -2.4970 cx         1 7SS      -0.073300
      8 C15          2.2790    -1.9780    -3.3070 ca         1 7SS      -0.160600
      9 C17          3.5790    -1.6530    -2.9130 ca         1 7SS      -0.062500
     10 C20          2.9290    -4.2730    -3.5900 ca         1 7SS      -0.115000
     11 C21          5.2690    -5.0000    -3.1360 cp         1 7SS      -0.086000
     12 C22          0.0460     1.8400    -3.8170 cx         1 7SS      -0.109900
     13 C24          4.9840    -6.2920    -3.5750 ca         1 7SS      -0.050000
     14 C26          7.5020    -5.6840    -2.5760 ca         1 7SS      -0.174000
     15 C28          5.9520    -7.2700    -3.5140 ca         1 7SS      -0.174000
     16 O3           0.4400    -0.9220    -4.2850 o          1 7SS      -0.662100
     17 C14          1.2420    -0.9280    -3.3720 c          1 7SS       0.612700
     18 C18          4.5460    -2.6310    -2.8580 ca         1 7SS      -0.115000
     19 C19          4.2280    -3.9470    -3.1960 cp         1 7SS       0.007000
     20 C25          6.5370    -4.7020    -2.6350 ca         1 7SS      -0.050000
     21 C27          7.2130    -6.9700    -3.0140 ca         1 7SS       0.155100
     22 O4           8.1660    -7.9360    -2.9530 os         1 7SS      -0.304900
     23 C29          7.8020    -9.2360    -3.4210 c3         1 7SS       0.244700
     24 C16          1.9610    -3.2960    -3.6450 ca         1 7SS      -0.062500
     25 N            1.1850     0.0230    -2.4200 n          1 7SS      -0.075800
     26 C23         -1.0330     0.8360    -3.4070 cx         1 7SS      -0.109900
     27 C3          -0.6920     0.0050     1.1960 ca         1 7SS      -0.143000
     28 C2          -0.0040     0.0110     2.3960 ca         1 7SS      -0.060000
     29 C1           1.3760     0.0110     2.4020 ca         1 7SS      -0.196000
     30 C            2.0740     0.0000     1.2010 ca         1 7SS       0.166100
     31 O            3.4330    -0.0000     1.2050 os         1 7SS      -0.312900
     32 C9           5.3790    -0.2930     4.4050 c3         1 7SS      -0.032400
     33 C11          6.6800    -1.0340     6.4040 c3         1 7SS      -0.134400
     34 C12          7.4180    -2.1890     7.0300 c          1 7SS       0.979600
     35 O1           7.9850    -2.0490     8.2380 o          1 7SS      -0.904800
     36 O2           7.5020    -3.2420     6.4430 o          1 7SS      -0.904800
     37 H3          -0.5410    -0.0050    -0.9380 ha         1 7SS       0.135000
     38 H5           2.7470    -0.8920    -1.3690 h1         1 7SS       0.054700
     39 H4           2.7720     0.8770    -1.3540 h1         1 7SS       0.054700
     40 H6           3.3650     0.9650     3.0250 h1         1 7SS       0.015200
     41 H7           4.8940     1.1080     2.1470 h1         1 7SS       0.015200
     42 H8           5.3040    -1.3220     2.5190 hc         1 7SS       0.025700
     43 H9           3.8070    -1.4110     3.4570 hc         1 7SS       0.025700
     44 H13          5.2720    -2.2370     5.3140 hc         1 7SS       0.022700
     45 H12          6.7820    -1.9200     4.4490 hc         1 7SS       0.022700
     46 H16         -0.0400     1.6660    -1.6120 h1         1 7SS       0.086700
     47 H18          3.8260    -0.6320    -2.6480 ha         1 7SS       0.118500
     48 H20          2.6860    -5.2920    -3.8640 ha         1 7SS       0.115500
     49 H21          0.7100     1.5160    -4.6100 hc         1 7SS       0.065200
     50 H22         -0.2300     2.8840    -3.7300 hc         1 7SS       0.065200
     51 H25          4.0010    -6.5270    -3.9650 ha         1 7SS       0.111500
     52 H27          8.4860    -5.4530    -2.1860 ha         1 7SS       0.119000
     53 H28          5.7300    -8.2740    -3.8550 ha         1 7SS       0.119000
     54 H19          5.5620    -2.3730    -2.5860 ha         1 7SS       0.115500
     55 H26          6.7620    -3.6990    -2.2930 ha         1 7SS       0.111500
     56 H31          6.9720    -9.6110    -2.8360 h1         1 7SS      -0.003633
     57 H30          7.5130    -9.1770    -4.4630 h1         1 7SS      -0.003633
     58 H29          8.6480    -9.9050    -3.3190 h1         1 7SS      -0.003633
     59 H17          0.9690    -3.5670    -3.9840 ha         1 7SS       0.118500
     60 H23         -1.9680     1.2660    -3.0700 hc         1 7SS       0.065200
     61 H24         -1.0290    -0.1020    -3.9490 hc         1 7SS       0.065200
     62 H2          -1.7760     0.0050     1.1930 ha         1 7SS       0.101000
     63 H1          -0.5490     0.0170     3.3320 ha         1 7SS       0.100000
     64 H            1.9140     0.0140     3.3420 ha         1 7SS       0.136000
     65 H11          4.6840     0.1850     5.0850 hc         1 7SS       0.004700
     66 H10          6.1460     0.4150     4.1150 hc         1 7SS       0.004700
     67 H14          5.9150    -0.6820     7.0860 hc         1 7SS       0.004200
     68 H15          7.3770    -0.2300     6.1980 hc         1 7SS       0.004200
@<TRIPOS>BOND
     1     1     2 ar  
     2     1    27 ar  
     3     1    37 1   
     4     2     3 1   
     5     2    30 ar  
     6     3    25 1   
     7     3    38 1   
     8     3    39 1   
     9     4     5 1   
    10     4    31 1   
    11     4    40 1   
    12     4    41 1   
    13     5    32 1   
    14     5    42 1   
    15     5    43 1   
    16     6    32 1   
    17     6    33 1   
    18     6    44 1   
    19     6    45 1   
    20     7    12 1   
    21     7    25 1   
    22     7    26 1   
    23     7    46 1   
    24     8     9 ar  
    25     8    17 1   
    26     8    24 ar  
    27     9    18 ar  
    28     9    47 1   
    29    10    19 ar  
    30    10    24 ar  
    31    10    48 1   
    32    11    13 ar  
    33    11    19 1   
    34    11    20 ar  
    35    12    26 1   
    36    12    49 1   
    37    12    50 1   
    38    13    15 ar  
    39    13    51 1   
    40    14    20 ar  
    41    14    21 ar  
    42    14    52 1   
    43    15    21 ar  
    44    15    53 1   
    45    16    17 2   
    46    17    25 1   
    47    18    19 ar  
    48    18    54 1   
    49    20    55 1   
    50    21    22 1   
    51    22    23 1   
    52    23    56 1   
    53    23    57 1   
    54    23    58 1   
    55    24    59 1   
    56    26    60 1   
    57    26    61 1   
    58    27    28 ar  
    59    27    62 1   
    60    28    29 ar  
    61    28    63 1   
    62    29    30 ar  
    63    29    64 1   
    64    30    31 1   
    65    32    65 1   
    66    32    66 1   
    67    33    34 1   
    68    33    67 1   
    69    33    68 1   
    70    34    35 1   
    71    34    36 1   
@<TRIPOS>SUBSTRUCTURE
     1 7SS         1 TEMP              0 ****  ****    0 ROOT
