@<TRIPOS>MOLECULE
7SV
   64    67     1     0     0
SMALL
bcc


@<TRIPOS>ATOM
      1 C10          0.0000     0.0000     0.0000 ca         1 7SV       0.179100
      2 C13          1.3850    -0.0120     2.3950 ca         1 7SV      -0.152000
      3 C15          1.3870     0.0000     0.0000 ca         1 7SV      -0.163300
      4 C20          4.8370     0.5420    -1.9480 ca         1 7SV      -0.137600
      5 C21          4.8680    -0.4410    -0.9560 ca         1 7SV      -0.078000
      6 C22          5.7890    -1.4620    -1.0300 ca         1 7SV      -0.092000
      7 C24          7.6800    -2.6140    -2.1720 cp         1 7SV      -0.060000
      8 C26          8.7540    -4.3620    -3.4190 ca         1 7SV      -0.113000
      9 C28          9.4020    -3.9450    -1.1470 ca         1 7SV      -0.134000
     10 O01         -6.1770     0.0000    -6.1150 o          1 7SV      -0.904300
     11 C02         -6.9120    -0.0010    -5.1560 c          1 7SV       0.979600
     12 O03         -8.2430    -0.0020    -5.3310 o          1 7SV      -0.904300
     13 C04         -6.3350    -0.0010    -3.7640 c3         1 7SV      -0.134400
     14 C05         -4.8070    -0.0010    -3.8450 c3         1 7SV      -0.015400
     15 C06         -4.2210    -0.0020    -2.4320 c3         1 7SV      -0.032400
     16 C07         -2.6930    -0.0000    -2.5130 c3         1 7SV      -0.036400
     17 C08         -2.1080    -0.0010    -1.1010 c3         1 7SV       0.195400
     18 O09         -0.6800    -0.0000    -1.1760 os         1 7SV      -0.305900
     19 C11         -0.6910    -0.0070     1.2030 ca         1 7SV      -0.209000
     20 C12          0.0040    -0.0130     2.3970 ca         1 7SV      -0.051000
     21 C14          2.0770     0.0000     1.1970 ca         1 7SV      -0.060000
     22 C16          2.1420     0.0010    -1.3050 c3         1 7SV       0.052300
     23 N17          2.5550     1.3690    -1.6290 n          1 7SV      -0.059800
     24 C18          3.8530     1.6420    -1.8680 c          1 7SV       0.601700
     25 O19          4.2140     2.7930    -2.0160 o          1 7SV      -0.653100
     26 C23          6.6890    -1.5150    -2.0940 cp         1 7SV      -0.029000
     27 C25          7.8260    -3.3420    -3.3510 ca         1 7SV      -0.066000
     28 C27          9.5390    -4.6630    -2.3200 ca         1 7SV      -0.078000
     29 C29          8.4750    -2.9210    -1.0650 ca         1 7SV       0.114900
     30 F30          8.3410    -2.2190     0.0810 f          1 7SV      -0.125900
     31 C31          6.6590    -0.5330    -3.0840 ca         1 7SV      -0.092000
     32 C32          5.7390     0.4890    -3.0130 ca         1 7SV      -0.078000
     33 C33          1.5570     2.4400    -1.6950 cx         1 7SV      -0.062300
     34 C34          1.5370     3.3090    -2.9520 cx         1 7SV      -0.111900
     35 C35          2.0630     3.8820    -1.6340 cx         1 7SV      -0.111900
     36 H131         1.9270    -0.0140     3.3330 ha         1 7SV       0.103000
     37 H211         4.1690    -0.4000    -0.1300 ha         1 7SV       0.126500
     38 H221         5.8140    -2.2250    -0.2610 ha         1 7SV       0.111500
     39 H261         8.8680    -4.9280    -4.3350 ha         1 7SV       0.107000
     40 H281        10.0190    -4.1850    -0.2910 ha         1 7SV       0.117000
     41 H041        -6.6680    -0.8860    -3.2350 hc         1 7SV       0.003700
     42 H042        -6.6690     0.8830    -3.2350 hc         1 7SV       0.003700
     43 H051        -4.4740     0.8840    -4.3740 hc         1 7SV       0.022700
     44 H052        -4.4740    -0.8850    -4.3750 hc         1 7SV       0.022700
     45 H062        -4.5540    -0.8870    -1.9030 hc         1 7SV       0.005200
     46 H061        -4.5550     0.8820    -1.9020 hc         1 7SV       0.005200
     47 H072        -2.3600     0.8850    -3.0420 hc         1 7SV       0.024700
     48 H071        -2.3590    -0.8840    -3.0430 hc         1 7SV       0.024700
     49 H081        -2.4410     0.8840    -0.5710 h1         1 7SV       0.001200
     50 H082        -2.4410    -0.8850    -0.5720 h1         1 7SV       0.001200
     51 H111        -1.7740    -0.0080     1.2060 ha         1 7SV       0.129000
     52 H121        -0.5360    -0.0210     3.3360 ha         1 7SV       0.098000
     53 H141         3.1600     0.0010     1.1980 ha         1 7SV       0.105000
     54 H161         1.5020    -0.3790    -2.0920 h1         1 7SV       0.054700
     55 H162         3.0180    -0.6290    -1.2160 h1         1 7SV       0.054700
     56 H251         7.2130    -3.1090    -4.2120 ha         1 7SV       0.115000
     57 H271        10.2660    -5.4640    -2.3800 ha         1 7SV       0.104000
     58 H311         7.3590    -0.5750    -3.9100 ha         1 7SV       0.111500
     59 H321         5.7150     1.2520    -3.7830 ha         1 7SV       0.126500
     60 H331         0.5880     2.2800    -1.2380 h1         1 7SV       0.083700
     61 H342         0.5600     3.6650    -3.2590 hc         1 7SV       0.066200
     62 H341         2.2900     3.0750    -3.6950 hc         1 7SV       0.066200
     63 H352         3.1390     3.9980    -1.5720 hc         1 7SV       0.066200
     64 H351         1.4090     4.5870    -1.1360 hc         1 7SV       0.066200
@<TRIPOS>BOND
     1     1     3 ar  
     2     1    18 1   
     3     1    19 ar  
     4     2    20 ar  
     5     2    21 ar  
     6     2    36 1   
     7     3    21 ar  
     8     3    22 1   
     9     4     5 ar  
    10     4    24 1   
    11     4    32 ar  
    12     5     6 ar  
    13     5    37 1   
    14     6    26 ar  
    15     6    38 1   
    16     7    26 1   
    17     7    27 ar  
    18     7    29 ar  
    19     8    27 ar  
    20     8    28 ar  
    21     8    39 1   
    22     9    28 ar  
    23     9    29 ar  
    24     9    40 1   
    25    10    11 1   
    26    11    12 1   
    27    11    13 1   
    28    13    14 1   
    29    13    41 1   
    30    13    42 1   
    31    14    15 1   
    32    14    43 1   
    33    14    44 1   
    34    15    16 1   
    35    15    45 1   
    36    15    46 1   
    37    16    17 1   
    38    16    47 1   
    39    16    48 1   
    40    17    18 1   
    41    17    49 1   
    42    17    50 1   
    43    19    20 ar  
    44    19    51 1   
    45    20    52 1   
    46    21    53 1   
    47    22    23 1   
    48    22    54 1   
    49    22    55 1   
    50    23    24 1   
    51    23    33 1   
    52    24    25 2   
    53    26    31 ar  
    54    27    56 1   
    55    28    57 1   
    56    29    30 1   
    57    31    32 ar  
    58    31    58 1   
    59    32    59 1   
    60    33    34 1   
    61    33    35 1   
    62    33    60 1   
    63    34    35 1   
    64    34    61 1   
    65    34    62 1   
    66    35    63 1   
    67    35    64 1   
@<TRIPOS>SUBSTRUCTURE
     1 7SV         1 TEMP              0 ****  ****    0 ROOT
