@<TRIPOS>MOLECULE
molecule
   64    67     1     0     0
SMALL
bcc


@<TRIPOS>ATOM
      1 C4           0.0000     0.0000     0.0000 ca         1 7SY      -0.087000
      2 C5           1.3810     0.0000     0.0000 ca         1 7SY      -0.151300
      3 C6           2.1350     0.0020    -1.3050 c3         1 7SY       0.152300
      4 C7           4.0800     0.0130     2.4800 c3         1 7SY       0.127400
      5 C8           5.5940    -0.0800     2.2840 c3         1 7SY      -0.084400
      6 C10          7.7960    -0.1590     3.4610 c3         1 7SY      -0.062400
      7 C13          2.4280    -2.5030    -1.0250 cx         1 7SY       0.039700
      8 C15          4.8500     0.2430    -2.0320 ca         1 7SY      -0.135600
      9 C17          4.7160     1.2560    -1.0800 ca         1 7SY      -0.095500
     10 C20          6.1030     1.7280    -3.4440 ca         1 7SY      -0.126500
     11 C21          6.5640     4.0740    -2.7390 cp         1 7SY      -0.005000
     12 C22          2.5920    -3.6390    -2.0370 cx         1 7SY      -0.151900
     13 C24          6.5230     5.0510    -1.7480 ca         1 7SY      -0.155000
     14 C26          7.7300     5.5950    -4.1850 ca         1 7SY      -0.105000
     15 C28          7.0860     6.2930    -1.9810 ca         1 7SY       0.135900
     16 F            7.0480     7.2420    -1.0210 f          1 7SY      -0.141900
     17 C27          7.6880     6.5630    -3.1990 ca         1 7SY      -0.171000
     18 C25          7.1720     4.3540    -3.9620 ca         1 7SY      -0.136000
     19 C19          5.9670     2.7380    -2.4930 cp         1 7SY      -0.026000
     20 C16          5.5490     0.4890    -3.2180 ca         1 7SY      -0.095500
     21 C18          5.2710     2.4940    -1.3090 ca         1 7SY      -0.126500
     22 C14          4.2610    -1.0880    -1.7850 c          1 7SY       0.687700
     23 O3           4.9310    -2.0900    -1.9440 o          1 7SY      -0.606100
     24 N            2.9780    -1.1930    -1.3840 n          1 7SY      -0.440800
     25 C23          3.4190    -3.6340    -0.7490 cx         1 7SY      -0.151900
     26 C3          -0.6920     0.0040     1.1970 ca         1 7SY      -0.178000
     27 C2          -0.0040     0.0100     2.3970 ca         1 7SY      -0.086000
     28 C1           1.3770     0.0110     2.4020 ca         1 7SY      -0.219000
     29 C            2.0740     0.0000     1.2030 ca         1 7SY       0.166100
     30 O            3.4330     0.0010     1.2050 os         1 7SY      -0.330900
     31 C9           6.2780    -0.1930     3.6470 c3         1 7SY      -0.086400
     32 C11          8.4810    -0.3980     4.8080 c3         1 7SY      -0.183400
     33 C12          9.9720    -0.2440     4.6480 c          1 7SY       0.891600
     34 O1          10.4320     0.1160     3.5910 o          1 7SY      -0.855300
     35 O2          10.7880    -0.5070     5.6800 o          1 7SY      -0.855300
     36 H3          -0.5410    -0.0050    -0.9380 ha         1 7SY       0.130000
     37 H4           1.4320     0.0030    -2.1290 h1         1 7SY       0.061200
     38 H5           2.7580     0.8870    -1.3610 h1         1 7SY       0.061200
     39 H7           3.8380     0.9320     2.9990 h1         1 7SY       0.034700
     40 H6           3.7390    -0.8330     3.0650 h1         1 7SY       0.034700
     41 H8           5.8290    -0.9540     1.6890 hc         1 7SY       0.057700
     42 H9           5.9470     0.8090     1.7760 hc         1 7SY       0.057700
     43 H12          8.0910     0.8080     3.0720 hc         1 7SY       0.050200
     44 H13          8.0920    -0.9330     2.7640 hc         1 7SY       0.050200
     45 H16          1.5170    -2.5460    -0.4400 h1         1 7SY       0.095700
     46 H18          4.1750     1.0660    -0.1600 ha         1 7SY       0.160000
     47 H20          6.6440     1.9190    -4.3630 ha         1 7SY       0.135500
     48 H21          1.7820    -4.3570    -2.0690 hc         1 7SY       0.087200
     49 H22          3.1330    -3.3850    -2.9400 hc         1 7SY       0.087200
     50 H25          6.0520     4.8390    -0.7950 ha         1 7SY       0.153000
     51 H27          8.2030     5.8120    -5.1360 ha         1 7SY       0.132000
     52 H28          8.1280     7.5370    -3.3790 ha         1 7SY       0.140000
     53 H26          7.2060     3.5970    -4.7370 ha         1 7SY       0.136000
     54 H17          5.6540    -0.2960    -3.9580 ha         1 7SY       0.160000
     55 H19          5.1670     3.2790    -0.5700 ha         1 7SY       0.135500
     56 H23          4.4650    -3.3790    -0.8660 hc         1 7SY       0.087200
     57 H24          3.1140    -4.3500     0.0050 hc         1 7SY       0.087200
     58 H2          -1.7760     0.0030     1.1940 ha         1 7SY       0.126000
     59 H1          -0.5490     0.0150     3.3330 ha         1 7SY       0.128000
     60 H            1.9160     0.0130     3.3410 ha         1 7SY       0.145000
     61 H10          5.9730     0.6360     4.2740 hc         1 7SY       0.030200
     62 H11          5.9930    -1.1250     4.1180 hc         1 7SY       0.030200
     63 H15          8.1190     0.3250     5.5300 hc         1 7SY       0.026700
     64 H14          8.2560    -1.3990     5.1550 hc         1 7SY       0.026700
@<TRIPOS>BOND
     1    12    25 1
     2    12     7 1
     3    34    33 1
     4    25     7 1
     5     7    24 1
     6    33    35 1
     7    33    32 1
     8    27    26 ar
     9    27    28 ar
    10    26     1 ar
    11    28    29 ar
    12     1     2 ar
    13    24     3 1
    14    24    22 1
    15    29     2 ar
    16    29    30 1
    17    32     6 1
    18     2     3 1
    19    23    22 2
    20    31     6 1
    21    31     5 1
    22    30     4 1
    23    22     8 1
    24     4     5 1
    25     8    20 ar
    26     8     9 ar
    27    20    10 ar
    28     9    21 ar
    29    10    19 ar
    30    21    19 ar
    31    19    11 1
    32    11    13 ar
    33    11    18 ar
    34    13    15 ar
    35    18    14 ar
    36    15    16 1
    37    15    17 ar
    38    14    17 ar
    39     1    36 1
    40     3    37 1
    41     3    38 1
    42     4    39 1
    43     4    40 1
    44     5    41 1
    45     5    42 1
    46     6    43 1
    47     6    44 1
    48     7    45 1
    49     9    46 1
    50    10    47 1
    51    12    48 1
    52    12    49 1
    53    13    50 1
    54    14    51 1
    55    17    52 1
    56    18    53 1
    57    20    54 1
    58    21    55 1
    59    25    56 1
    60    25    57 1
    61    26    58 1
    62    27    59 1
    63    28    60 1
    64    31    61 1
    65    31    62 1
    66    32    63 1
    67    32    64 1
@<TRIPOS>SUBSTRUCTURE
     1 7SY         1 TEMP              0 ****  ****    0 ROOT
