@<TRIPOS>MOLECULE
molecule
   47    49     1     0     0
SMALL
bcc


@<TRIPOS>ATOM
      1 C4           0.0000     0.0000     0.0000 ca         1 7T1      -0.109500
      2 C5           1.3950     0.0000     0.0000 ca         1 7T1      -0.082500
      3 C6          -0.7510    -0.0020     3.6980 c3         1 7T1       0.673200
      4 C7           2.1380    -0.0010    -1.2790 cc         1 7T1       0.501900
      5 C8           2.4190    -0.0050    -3.4910 cd         1 7T1       0.378600
      6 C10          1.9190    -0.0110    -4.9130 c3         1 7T1      -0.122400
      7 C13          7.2410     2.6350    -6.2910 ca         1 7T1      -0.078000
      8 C15          8.0670     0.0920    -7.0250 ca         1 7T1      -0.215000
      9 C17          8.2780     2.4800    -7.1890 ca         1 7T1      -0.114300
     10 C20         11.2320    -0.2480    -9.7610 c          1 7T1       0.895600
     11 O2          11.6780     0.8100   -10.1370 o          1 7T1      -0.825300
     12 O1          11.7530    -1.3980   -10.2200 o          1 7T1      -0.825300
     13 C19         10.0920    -0.2790    -8.7760 c3         1 7T1       0.016400
     14 C16          8.6940     1.2090    -7.5570 ca         1 7T1       0.168100
     15 C18          8.9600     3.6930    -7.7680 c3         1 7T1      -0.031800
     16 C14          7.0370     0.2440    -6.1180 ca         1 7T1      -0.115000
     17 C12          6.6160     1.5170    -5.7520 ca         1 7T1      -0.029100
     18 S1           5.3020     1.7120    -4.5950 ss         1 7T1      -0.277000
     19 C9           3.7230    -0.0010    -3.1980 cc         1 7T1      -0.104700
     20 S            3.8920    -0.0010    -1.4430 ss         1 7T1      -0.209300
     21 N            1.6000    -0.0070    -2.4650 nd         1 7T1      -0.669000
     22 C            2.0870     0.0000     1.2120 ca         1 7T1      -0.109500
     23 C3          -0.6870     0.0010     1.1960 ca         1 7T1      -0.084500
     24 C2           0.0050    -0.0040     2.3940 ca         1 7T1      -0.180300
     25 C1           1.3890     0.0000     2.4010 ca         1 7T1      -0.084500
     26 F           -1.9700     0.6630     3.5280 f          1 7T1      -0.224967
     27 F1          -0.9920    -1.3200     4.0990 f          1 7T1      -0.224967
     28 F2           0.0050     0.6530     4.6750 f          1 7T1      -0.224967
     29 H3          -0.5430     0.0040    -0.9370 ha         1 7T1       0.155000
     30 H5           2.3160     0.8490    -5.4390 hc         1 7T1       0.055700
     31 H6           2.2450    -0.9190    -5.4070 hc         1 7T1       0.055700
     32 H4           0.8370     0.0320    -4.9160 hc         1 7T1       0.055700
     33 H9           6.9150     3.6280    -6.0050 ha         1 7T1       0.131000
     34 H11          8.3940    -0.9010    -7.3120 ha         1 7T1       0.149000
     35 H16          9.2460    -0.7920    -9.2190 h1         1 7T1       0.027700
     36 H15         10.4030    -0.8020    -7.8800 h1         1 7T1       0.027700
     37 H12          8.8540     3.6860    -8.8460 hc         1 7T1       0.044367
     38 H14          8.5030     4.5900    -7.3670 hc         1 7T1       0.044367
     39 H13         10.0110     3.6750    -7.5080 hc         1 7T1       0.044367
     40 H10          6.5490    -0.6280    -5.7010 ha         1 7T1       0.114000
     41 H7           4.5420    -0.5110    -5.0960 h1         1 7T1       0.077700
     42 H8           5.7110    -0.5060    -3.7690 h1         1 7T1       0.077700
     43 H            3.1700     0.0020     1.2180 ha         1 7T1       0.155000
     44 H2          -1.7700     0.0010     1.1980 ha         1 7T1       0.148000
     45 H1           1.9240     0.0000     3.3430 ha         1 7T1       0.148000
     46 C11          4.8540     0.0010    -4.1940 c3         1 7T1       0.081000
     47 O            9.7160     1.0580    -8.4410 os         1 7T1      -0.281900
@<TRIPOS>BOND
     1    11    10 1
     2    12    10 1
     3    10    13 1
     4    16     8 ar
     5    16    17 ar
     6    46    18 1
     7    46    19 1
     8     6     5 1
     9     8    14 ar
    10    18    17 1
    11    17     7 ar
    12    13    47 1
    13    19     5 2
    14    19    20 1
    15     5    21 1
    16    14    47 1
    17    14     9 ar
    18     7     9 ar
    19     9    15 1
    20    21     4 2
    21    20     4 1
    22     4     2 1
    23     2     1 ar
    24     2    22 ar
    25     1    23 ar
    26    22    25 ar
    27    23    24 ar
    28    25    24 ar
    29    24     3 1
    30     3    27 1
    31     3    26 1
    32     3    28 1
    33     1    29 1
    34     6    30 1
    35     6    31 1
    36     6    32 1
    37     7    33 1
    38     8    34 1
    39    13    35 1
    40    13    36 1
    41    15    37 1
    42    15    38 1
    43    15    39 1
    44    16    40 1
    45    46    41 1
    46    46    42 1
    47    22    43 1
    48    23    44 1
    49    25    45 1
@<TRIPOS>SUBSTRUCTURE
     1 7T1         1 TEMP              0 ****  ****    0 ROOT
