@<TRIPOS>MOLECULE
7T7
   50    53     1     0     0
SMALL
bcc


@<TRIPOS>ATOM
      1 N1           0.0000     0.0000     0.0000 ns         1 7T7      -0.207900
      2 C4           2.0860     0.0060    -1.2780 ca         1 7T7      -0.178600
      3 C5           1.3890     0.0060    -2.4900 ca         1 7T7      -0.034000
      4 C6           2.0810     0.0050    -3.6800 ca         1 7T7      -0.137500
      5 C7           1.3480     0.0000     0.0000 c          1 7T7       0.600700
      6 C8          -0.7330     0.0000     1.2690 c3         1 7T7       0.063000
      7 C10         -3.0480    -0.0180     2.3070 c3         1 7T7      -0.053400
      8 C13          5.6450    -0.4370    -7.3300 c3         1 7T7       0.140800
      9 C15          7.0310    -0.8000    -9.5400 ca         1 7T7      -0.070500
     10 C17          6.1900     0.3160   -11.4820 ca         1 7T7      -0.097000
     11 C20          4.0430     0.9570    -8.3460 c3         1 7T7       0.140800
     12 C16          7.1300    -0.5020   -10.8860 ca         1 7T7      -0.097000
     13 C3           3.4830     0.0050    -1.2790 ca         1 7T7      -0.034000
     14 C18          5.1520     0.8350   -10.7330 ca         1 7T7      -0.070500
     15 C2           4.1690     0.0050    -2.4730 ca         1 7T7      -0.137500
     16 C19          5.0520     0.5370    -9.3840 ca         1 7T7      -0.115300
     17 C14          5.9920    -0.2810    -8.7880 ca         1 7T7      -0.115300
     18 C1           3.4710     0.0050    -3.6780 ca         1 7T7      -0.058400
     19 C            3.6640     0.6490    -5.9550 c          1 7T7       0.644100
     20 C11         -4.2050    -0.9950     2.0280 c3         1 7T7       0.209400
     21 C12         -2.6760    -1.3260     0.3180 c3         1 7T7       0.207400
     22 C9          -2.2370     0.0010     0.9890 c3         1 7T7      -0.104700
     23 N2           4.4290     0.3400    -7.0730 n          1 7T7      -0.269800
     24 N            4.1690     0.0050    -4.8840 ns         1 7T7      -0.066100
     25 O1           1.9550    -0.0060     1.0540 o          1 7T7      -0.653100
     26 O            2.7110     1.3970    -6.0580 o          1 7T7      -0.649100
     27 O2          -4.0780    -1.4330     0.6650 os         1 7T7      -0.404600
     28 H1          -0.5000     0.0320    -0.8660 hn         1 7T7       0.182500
     29 H2           0.3050     0.0070    -2.4920 ha         1 7T7       0.115000
     30 H3           1.5410     0.0060    -4.6190 ha         1 7T7       0.123000
     31 H4          -0.4710     0.8840     1.8370 h1         1 7T7       0.029700
     32 H5          -0.4720    -0.8850     1.8370 h1         1 7T7       0.029700
     33 H6          -2.4340    -0.3830     3.1220 hc         1 7T7       0.026200
     34 H7          -3.4330     0.9700     2.5270 hc         1 7T7       0.026200
     35 H9           5.4490    -1.4820    -7.1220 h1         1 7T7       0.022950
     36 H10          7.7680    -1.4420    -9.0730 ha         1 7T7       0.104500
     37 H11          6.2660     0.5510   -12.5370 ha         1 7T7       0.106000
     38 H12          3.0640     0.5930    -8.6350 h1         1 7T7       0.022950
     39 H13          4.0700     2.0350    -8.2410 h1         1 7T7       0.022950
     40 H14          7.9450    -0.9100   -11.4730 ha         1 7T7       0.106000
     41 H15          4.0260     0.0040    -0.3410 ha         1 7T7       0.115000
     42 H16          4.4150     1.4770   -11.2010 ha         1 7T7       0.104500
     43 H17          5.2520     0.0040    -2.4750 ha         1 7T7       0.123000
     44 H18         -4.1360    -1.8460     2.6950 h1         1 7T7       0.007200
     45 H19         -5.1540    -0.4900     2.1640 h1         1 7T7       0.007200
     46 H20         -2.5540    -1.2670    -0.7570 h1         1 7T7       0.012200
     47 H21         -2.1190    -2.1610     0.7260 h1         1 7T7       0.012200
     48 H22         -2.5210     0.8490     0.3780 hc         1 7T7       0.043700
     49 H23          5.0400    -0.4830    -4.9590 hn         1 7T7       0.183500
     50 H8           6.4540    -0.0390    -6.7280 h1         1 7T7       0.022950
@<TRIPOS>BOND
     1     1     5 1   
     2     1     6 1   
     3     1    28 1   
     4     2     3 ar  
     5     2     5 1   
     6     2    13 ar  
     7     3     4 ar  
     8     3    29 1   
     9     4    18 ar  
    10     4    30 1   
    11     5    25 2   
    12     6    22 1   
    13     6    31 1   
    14     6    32 1   
    15     7    20 1   
    16     7    22 1   
    17     7    33 1   
    18     7    34 1   
    19     8    17 1   
    20     8    23 1   
    21     8    35 1   
    22     8    50 1   
    23     9    12 ar  
    24     9    17 ar  
    25     9    36 1   
    26    10    12 ar  
    27    10    14 ar  
    28    10    37 1   
    29    11    16 1   
    30    11    23 1   
    31    11    38 1   
    32    11    39 1   
    33    12    40 1   
    34    13    15 ar  
    35    13    41 1   
    36    14    16 ar  
    37    14    42 1   
    38    15    18 ar  
    39    15    43 1   
    40    16    17 ar  
    41    18    24 1   
    42    19    23 1   
    43    19    24 1   
    44    19    26 2   
    45    20    27 1   
    46    20    44 1   
    47    20    45 1   
    48    21    22 1   
    49    21    27 1   
    50    21    46 1   
    51    21    47 1   
    52    22    48 1   
    53    24    49 1   
@<TRIPOS>SUBSTRUCTURE
     1 7T7         1 TEMP              0 ****  ****    0 ROOT
