@<TRIPOS>MOLECULE
7T9
   42    44     1     0     0
SMALL
bcc


@<TRIPOS>ATOM
      1 C12          0.0000     0.0000     0.0000 ca         1 7T9      -0.097000
      2 C18         -2.8930     0.0020     0.0160 ca         1 7T9      -0.047000
      3 C11          1.3800     0.0000     0.0000 ca         1 7T9      -0.076000
      4 C19         -4.2750     0.0030     0.0760 ca         1 7T9      -0.235300
      5 C14          0.0140     0.0010     2.4090 ca         1 7T9      -0.075000
      6 C23         -2.8760     0.0020     2.4200 ca         1 7T9       0.428200
      7 C13         -0.6920     0.0010     1.2090 cp         1 7T9      -0.030000
      8 C17         -2.1770     0.0020     1.2160 cp         1 7T9      -0.157300
      9 C10          2.0800     0.0000     1.1960 ca         1 7T9      -0.096300
     10 C15          1.3960     0.0000     2.3990 ca         1 7T9      -0.094300
     11 C20         -4.8990     0.0030     1.3140 ca         1 7T9       0.560500
     12 C9           3.5710    -0.0000     1.4560 c3         1 7T9       0.004900
     13 C16          2.3820     0.0010     3.5480 c3         1 7T9       0.033900
     14 C8           3.7250     0.4410     2.9270 c3         1 7T9       0.192500
     15 C1           8.2310     1.3440     1.9030 c3         1 7T9       0.036900
     16 C3           7.0130    -0.7610     1.3290 c3         1 7T9       0.036900
     17 C2           6.8770     0.6330     1.9450 c3         1 7T9      -0.036900
     18 N22         -4.1950     0.0030     2.4310 nb         1 7T9      -0.586000
     19 N7           4.8460    -0.2540     3.5640 n7         1 7T9      -0.584100
     20 O5           7.1350    -0.4520     4.3690 o          1 7T9      -0.581300
     21 O6           6.0440     1.7630     4.2140 o          1 7T9      -0.581300
     22 F21         -6.2480     0.0040     1.3790 f          1 7T9      -0.223200
     23 S4           6.3270     0.4830     3.6670 s6         1 7T9       0.955900
     24 H12         -0.5430    -0.0000    -0.9370 ha         1 7T9       0.111000
     25 H11          1.9180    -0.0000    -0.9400 ha         1 7T9       0.103000
     26 H18         -2.3790     0.0020    -0.9380 ha         1 7T9       0.120000
     27 H19         -4.8630     0.0030    -0.8330 ha         1 7T9       0.128000
     28 H14         -0.5210     0.0010     3.3510 ha         1 7T9       0.113000
     29 H23         -2.3320     0.0020     3.3570 h4         1 7T9      -0.006900
     30 H91C         3.9610    -1.0040     1.3350 hc         1 7T9       0.028700
     31 H92C         4.0530     0.7220     0.8080 hc         1 7T9       0.028700
     32 H161         2.4710    -0.9950     3.9650 hc         1 7T9       0.029700
     33 H162         2.0720     0.7070     4.3080 hc         1 7T9       0.029700
     34 H8           3.8430     1.5160     2.9930 h1         1 7T9       0.057700
     35 H7           4.7050    -1.1530     3.9810 hn         1 7T9       0.355800
     36 H11C         8.5890     1.3780     0.8810 hc         1 7T9       0.013033
     37 H12C         8.1210     2.3530     2.2810 hc         1 7T9       0.013033
     38 H13C         8.9420     0.8030     2.5160 hc         1 7T9       0.013033
     39 H2           6.1500     1.2070     1.3830 h1         1 7T9       0.072700
     40 H31C         8.0480    -1.0760     1.3730 hc         1 7T9       0.013033
     41 H32C         6.3990    -1.4610     1.8820 hc         1 7T9       0.013033
     42 H33C         6.6880    -0.7320     0.2960 hc         1 7T9       0.013033
@<TRIPOS>BOND
     1     1     3 ar  
     2     1     7 ar  
     3     1    24 1   
     4     2     4 ar  
     5     2     8 ar  
     6     2    26 1   
     7     3     9 ar  
     8     3    25 1   
     9     4    11 ar  
    10     4    27 1   
    11     5     7 ar  
    12     5    10 ar  
    13     5    28 1   
    14     6     8 ar  
    15     6    18 ar  
    16     6    29 1   
    17     7     8 1   
    18     9    10 ar  
    19     9    12 1   
    20    10    13 1   
    21    11    18 ar  
    22    11    22 1   
    23    12    14 1   
    24    12    30 1   
    25    12    31 1   
    26    13    14 1   
    27    13    32 1   
    28    13    33 1   
    29    14    19 1   
    30    14    34 1   
    31    15    17 1   
    32    15    36 1   
    33    15    37 1   
    34    15    38 1   
    35    16    17 1   
    36    16    40 1   
    37    16    41 1   
    38    16    42 1   
    39    17    23 1   
    40    17    39 1   
    41    19    23 1   
    42    19    35 1   
    43    20    23 2   
    44    21    23 2   
@<TRIPOS>SUBSTRUCTURE
     1 7T9         1 TEMP              0 ****  ****    0 ROOT
