@<TRIPOS>MOLECULE
molecule
   42    44     1     0     0
SMALL
bcc


@<TRIPOS>ATOM
      1 C12          0.0000     0.0000     0.0000 ca         1 7T9      -0.117000
      2 C18         -2.8930     0.0020     0.0160 ca         1 7T9      -0.064000
      3 C11          1.3800     0.0000     0.0000 ca         1 7T9      -0.108000
      4 C19         -4.2750     0.0030     0.0760 ca         1 7T9      -0.278300
      5 C14          0.0140     0.0010     2.4090 ca         1 7T9      -0.102000
      6 C23         -2.8760     0.0020     2.4200 ca         1 7T9       0.461200
      7 C13         -0.6920     0.0010     1.2090 cp         1 7T9      -0.031000
      8 C17         -2.1770     0.0020     1.2160 cp         1 7T9      -0.174300
      9 C10          2.0800     0.0000     1.1960 ca         1 7T9      -0.089300
     10 C15          1.3960     0.0000     2.3990 ca         1 7T9      -0.089300
     11 C20         -4.8990     0.0030     1.3140 ca         1 7T9       0.642500
     12 C9           3.5710    -0.0000     1.4560 c3         1 7T9      -0.061100
     13 C16          2.3820     0.0010     3.5480 c3         1 7T9      -0.035100
     14 C8           3.7250     0.4410     2.9270 c3         1 7T9       0.236500
     15 C1           8.2310     1.3440     1.9030 c3         1 7T9      -0.067100
     16 C3           7.0130    -0.7610     1.3290 c3         1 7T9      -0.067100
     17 C2           6.8770     0.6330     1.9450 c3         1 7T9      -0.212900
     18 N22         -4.1950     0.0030     2.4310 nb         1 7T9      -0.720000
     19 N7           4.8460    -0.2540     3.5640 n7         1 7T9      -0.905100
     20 O5           7.1350    -0.4520     4.3690 o          1 7T9      -0.627800
     21 O6           6.0440     1.7630     4.2140 o          1 7T9      -0.627800
     22 F21         -6.2480     0.0040     1.3790 f          1 7T9      -0.218200
     23 S4           6.3270     0.4830     3.6670 s6         1 7T9       1.329900
     24 H12         -0.5430    -0.0000    -0.9370 ha         1 7T9       0.134000
     25 H11          1.9180    -0.0000    -0.9400 ha         1 7T9       0.133000
     26 H18         -2.3790     0.0020    -0.9380 ha         1 7T9       0.147000
     27 H19         -4.8630     0.0030    -0.8330 ha         1 7T9       0.154000
     28 H14         -0.5210     0.0010     3.3510 ha         1 7T9       0.135000
     29 H23         -2.3320     0.0020     3.3570 h4         1 7T9       0.035100
     30 H91C         3.9610    -1.0040     1.3350 hc         1 7T9       0.060700
     31 H92C         4.0530     0.7220     0.8080 hc         1 7T9       0.060700
     32 H161         2.4710    -0.9950     3.9650 hc         1 7T9       0.064700
     33 H162         2.0720     0.7070     4.3080 hc         1 7T9       0.064700
     34 H8           3.8430     1.5160     2.9930 h1         1 7T9       0.087700
     35 H7           4.7050    -1.1530     3.9810 hn         1 7T9       0.457800
     36 H11C         8.5890     1.3780     0.8810 hc         1 7T9       0.048700
     37 H12C         8.1210     2.3530     2.2810 hc         1 7T9       0.048700
     38 H13C         8.9420     0.8030     2.5160 hc         1 7T9       0.048700
     39 H2           6.1500     1.2070     1.3830 h1         1 7T9       0.097700
     40 H31C         8.0480    -1.0760     1.3730 hc         1 7T9       0.048700
     41 H32C         6.3990    -1.4610     1.8820 hc         1 7T9       0.048700
     42 H33C         6.6880    -0.7320     0.2960 hc         1 7T9       0.048700
@<TRIPOS>BOND
     1     1     3 ar  
     2     1     7 ar  
     3     2     4 ar  
     4     2     8 ar  
     5     3     9 ar  
     6     4    11 ar  
     7     5     7 ar  
     8     5    10 ar  
     9     6     8 ar  
    10     6    18 ar  
    11     7     8 1   
    12     9    10 ar  
    13     9    12 1   
    14    10    13 1   
    15    11    18 ar  
    16    11    22 1   
    17    12    14 1   
    18    13    14 1   
    19    14    19 1   
    20    15    17 1   
    21    16    17 1   
    22    17    23 1   
    23    19    23 1   
    24    20    23 2   
    25    21    23 2   
    26     1    24 1   
    27     3    25 1   
    28     2    26 1   
    29     4    27 1   
    30     5    28 1   
    31     6    29 1   
    32    12    30 1   
    33    12    31 1   
    34    13    32 1   
    35    13    33 1   
    36    14    34 1   
    37    19    35 1   
    38    15    36 1   
    39    15    37 1   
    40    15    38 1   
    41    17    39 1   
    42    16    40 1   
    43    16    41 1   
    44    16    42 1   
@<TRIPOS>SUBSTRUCTURE
     1 7T9         1 TEMP              0 ****  ****    0 ROOT
