@<TRIPOS>MOLECULE
molecule
   55    58     1     0     0
SMALL
bcc


@<TRIPOS>ATOM
      1 N1           0.0000     0.0000     0.0000 ns         1 7TA      -0.473100
      2 N3           3.6430    -0.0010    -5.3680 nb         1 7TA      -0.697000
      3 C4          -3.9570    -1.9840     6.4810 c3         1 7TA       0.102500
      4 C5          -3.1610    -1.8810     5.1760 c3         1 7TA      -0.093400
      5 C6          -2.8380    -0.4120     4.8960 c3         1 7TA      -0.023400
      6 C7          -1.9780     0.1490     6.0300 c3         1 7TA      -0.093400
      7 C8          -2.7600     0.0680     7.3460 c3         1 7TA       0.102500
      8 C10         -0.8710    -0.9490     3.4450 ca         1 7TA      -0.106000
      9 C13          1.3470     0.0000     0.0000 c          1 7TA       0.781100
     10 C15          3.7090    -0.0010    -2.6070 ca         1 7TA      -0.102000
     11 C17          4.8200     0.0000    -4.7490 ca         1 7TA       0.396200
     12 C20          1.4380    -0.0010    -2.3970 cc         1 7TA      -0.134400
     13 C21         -1.9220     0.5420     1.3600 ca         1 7TA      -0.137500
     14 C22         -2.6090     0.4400     2.5540 ca         1 7TA      -0.106000
     15 O1           1.9550     0.0000     1.0520 o          1 7TA      -0.586100
     16 N2           2.0210    -0.0010    -1.1680 n          1 7TA      -0.158200
     17 C19          2.4260    -0.0010    -3.3500 ca         1 7TA      -0.219300
     18 C18          2.4870    -0.0020    -4.7580 ca         1 7TA       0.476200
     19 C16          4.9350     0.0000    -3.3970 ca         1 7TA      -0.197300
     20 C14          3.3810    -0.0000    -1.2790 cc         1 7TA      -0.077400
     21 C12         -0.7000    -0.1010     1.2080 ca         1 7TA       0.054600
     22 C11         -0.1780    -0.8530     2.2540 ca         1 7TA      -0.137500
     23 C9          -2.0850    -0.3040     3.5940 ca         1 7TA      -0.090300
     24 N           -3.2010    -1.3190     7.5500 n          1 7TA      -0.493800
     25 C3          -2.9150    -1.9670     8.6960 c          1 7TA       0.666100
     26 O           -2.3810    -1.3760     9.6110 o          1 7TA      -0.608100
     27 C1          -3.2610    -3.4270     8.8420 c3         1 7TA      -0.150700
     28 C2          -2.5250    -4.0060    10.0530 c3         1 7TA      -0.080600
     29 C           -4.7710    -3.5760     9.0440 c3         1 7TA      -0.080600
     30 H1          -0.5000     0.0650    -0.8640 hn         1 7TA       0.330500
     31 H3          -4.1030    -3.0270     6.7360 h1         1 7TA       0.057700
     32 H4          -2.2390    -2.4420     5.2720 hc         1 7TA       0.054450
     33 H5          -3.7520    -2.2820     4.3620 hc         1 7TA       0.054450
     34 H6          -3.7600     0.1520     4.8320 hc         1 7TA       0.056700
     35 H7          -1.0690    -0.4340     6.1150 hc         1 7TA       0.054450
     36 H8          -1.7330     1.1830     5.8190 hc         1 7TA       0.054450
     37 H9          -2.1200     0.3700     8.1670 h1         1 7TA       0.057700
     38 H10         -3.6250     0.7190     7.2940 h1         1 7TA       0.057700
     39 H11         -0.4650    -1.5350     4.2600 ha         1 7TA       0.137500
     40 H12          5.7220     0.0000    -5.3480 h4         1 7TA       0.020100
     41 H13          0.3720    -0.0020    -2.5920 h4         1 7TA       0.171000
     42 H14         -2.3330     1.1250     0.5450 ha         1 7TA       0.147000
     43 H15         -3.5620     0.9410     2.6740 ha         1 7TA       0.137500
     44 H16          1.5710    -0.0030    -5.3370 h4         1 7TA       0.019100
     45 H17          5.9080     0.0020    -2.9190 ha         1 7TA       0.139000
     46 H18          4.0840     0.0000    -0.4540 h4         1 7TA       0.198000
     47 H19          0.7730    -1.3580     2.1360 ha         1 7TA       0.147000
     48 H20         -2.9610    -3.9600     7.9480 hc         1 7TA       0.058700
     49 H21         -2.7500    -5.0620    10.1410 hc         1 7TA       0.042533
     50 H22         -2.8470    -3.4930    10.9510 hc         1 7TA       0.042533
     51 H23         -1.4580    -3.8740     9.9240 hc         1 7TA       0.042533
     52 H24         -5.2270    -2.5950     9.0960 hc         1 7TA       0.042533
     53 H25         -4.9610    -4.1120     9.9660 hc         1 7TA       0.042533
     54 H26         -5.1930    -4.1270     8.2120 hc         1 7TA       0.042533
     55 H2          -4.9170    -1.4970     6.3600 h1         1 7TA       0.057700
@<TRIPOS>BOND
     1    29    27 1   
     2    28    27 1   
     3    27    25 1   
     4    25    26 2   
     5    25    24 1   
     6     7    24 1   
     7     7     6 1   
     8    24     3 1   
     9     6     5 1   
    10     3     4 1   
    11     5     4 1   
    12     5    23 1   
    13    23    14 ar  
    14    23     8 ar  
    15    14    13 ar  
    16     8    22 ar  
    17    13    21 ar  
    18    22    21 ar  
    19    21     1 1   
    20    15     9 2   
    21     1     9 1   
    22     9    16 1   
    23    16    12 1   
    24    16    20 1   
    25    12    17 2   
    26    20    10 2   
    27    17    10 ar  
    28    17    18 ar  
    29    10    19 ar  
    30    18     2 ar  
    31    19    11 ar  
    32     2    11 ar  
    33     1    30 1   
    34     3    55 1   
    35     3    31 1   
    36     4    32 1   
    37     4    33 1   
    38     5    34 1   
    39     6    35 1   
    40     6    36 1   
    41     7    37 1   
    42     7    38 1   
    43     8    39 1   
    44    11    40 1   
    45    12    41 1   
    46    13    42 1   
    47    14    43 1   
    48    18    44 1   
    49    19    45 1   
    50    20    46 1   
    51    22    47 1   
    52    27    48 1   
    53    28    49 1   
    54    28    50 1   
    55    28    51 1   
    56    29    52 1   
    57    29    53 1   
    58    29    54 1   
@<TRIPOS>SUBSTRUCTURE
     1 7TA         1 TEMP              0 ****  ****    0 ROOT
