@<TRIPOS>MOLECULE
7TA
   55    58     1     0     0
SMALL
bcc


@<TRIPOS>ATOM
      1 N1           0.0000     0.0000     0.0000 ns         1 7TA      -0.024100
      2 N3           3.6430    -0.0010    -5.3680 nb         1 7TA      -0.585000
      3 C4          -3.9570    -1.9840     6.4810 c3         1 7TA       0.044000
      4 C5          -3.1610    -1.8810     5.1760 c3         1 7TA      -0.042400
      5 C6          -2.8380    -0.4120     4.8960 c3         1 7TA       0.006600
      6 C7          -1.9780     0.1490     6.0300 c3         1 7TA      -0.042400
      7 C8          -2.7600     0.0680     7.3460 c3         1 7TA       0.044000
      8 C10         -0.8710    -0.9490     3.4450 ca         1 7TA      -0.078500
      9 C13          1.3470     0.0000     0.0000 c          1 7TA       0.524100
     10 C15          3.7090    -0.0010    -2.6070 ca         1 7TA      -0.096000
     11 C17          4.8200     0.0000    -4.7490 ca         1 7TA       0.375200
     12 C20          1.4380    -0.0010    -2.3970 cc         1 7TA      -0.316400
     13 C21         -1.9220     0.5420     1.3600 ca         1 7TA      -0.106500
     14 C22         -2.6090     0.4400     2.5540 ca         1 7TA      -0.078500
     15 O1           1.9550     0.0000     1.0520 o          1 7TA      -0.631100
     16 N2           2.0210    -0.0010    -1.1680 n          1 7TA       0.365800
     17 C19          2.4260    -0.0010    -3.3500 ca         1 7TA      -0.199300
     18 C18          2.4870    -0.0020    -4.7580 ca         1 7TA       0.453200
     19 C16          4.9350     0.0000    -3.3970 ca         1 7TA      -0.157300
     20 C14          3.3810    -0.0000    -1.2790 cc         1 7TA      -0.242400
     21 C12         -0.7000    -0.1010     1.2080 ca         1 7TA      -0.099400
     22 C11         -0.1780    -0.8530     2.2540 ca         1 7TA      -0.106500
     23 C9          -2.0850    -0.3040     3.5940 ca         1 7TA      -0.092300
     24 N           -3.2010    -1.3190     7.5500 n          1 7TA      -0.157800
     25 C3          -2.9150    -1.9670     8.6960 c          1 7TA       0.593100
     26 O           -2.3810    -1.3760     9.6110 o          1 7TA      -0.644100
     27 C1          -3.2610    -3.4270     8.8420 c3         1 7TA      -0.130700
     28 C2          -2.5250    -4.0060    10.0530 c3         1 7TA       0.013400
     29 C           -4.7710    -3.5760     9.0440 c3         1 7TA       0.013400
     30 H1          -0.5000     0.0650    -0.8640 hn         1 7TA       0.175500
     31 H3          -4.1030    -3.0270     6.7360 h1         1 7TA       0.032450
     32 H4          -2.2390    -2.4420     5.2720 hc         1 7TA       0.027700
     33 H5          -3.7520    -2.2820     4.3620 hc         1 7TA       0.027700
     34 H6          -3.7600     0.1520     4.8320 hc         1 7TA       0.033700
     35 H7          -1.0690    -0.4340     6.1150 hc         1 7TA       0.027700
     36 H8          -1.7330     1.1830     5.8190 hc         1 7TA       0.027700
     37 H9          -2.1200     0.3700     8.1670 h1         1 7TA       0.032450
     38 H10         -3.6250     0.7190     7.2940 h1         1 7TA       0.032450
     39 H11         -0.4650    -1.5350     4.2600 ha         1 7TA       0.111500
     40 H12          5.7220     0.0000    -5.3480 h4         1 7TA      -0.022900
     41 H13          0.3720    -0.0020    -2.5920 h4         1 7TA       0.151000
     42 H14         -2.3330     1.1250     0.5450 ha         1 7TA       0.123000
     43 H15         -3.5620     0.9410     2.6740 ha         1 7TA       0.111500
     44 H16          1.5710    -0.0030    -5.3370 h4         1 7TA      -0.025900
     45 H17          5.9080     0.0020    -2.9190 ha         1 7TA       0.112000
     46 H18          4.0840     0.0000    -0.4540 h4         1 7TA       0.170000
     47 H19          0.7730    -1.3580     2.1360 ha         1 7TA       0.123000
     48 H20         -2.9610    -3.9600     7.9480 hc         1 7TA       0.034700
     49 H21         -2.7500    -5.0620    10.1410 hc         1 7TA       0.009700
     50 H22         -2.8470    -3.4930    10.9510 hc         1 7TA       0.009700
     51 H23         -1.4580    -3.8740     9.9240 hc         1 7TA       0.009700
     52 H24         -5.2270    -2.5950     9.0960 hc         1 7TA       0.009700
     53 H25         -4.9610    -4.1120     9.9660 hc         1 7TA       0.009700
     54 H26         -5.1930    -4.1270     8.2120 hc         1 7TA       0.009700
     55 H2          -4.9170    -1.4970     6.3600 h1         1 7TA       0.032450
@<TRIPOS>BOND
     1     1     9 1   
     2     1    21 1   
     3     1    30 1   
     4     2    11 ar  
     5     2    18 ar  
     6     3     4 1   
     7     3    24 1   
     8     3    31 1   
     9     3    55 1   
    10     4     5 1   
    11     4    32 1   
    12     4    33 1   
    13     5     6 1   
    14     5    23 1   
    15     5    34 1   
    16     6     7 1   
    17     6    35 1   
    18     6    36 1   
    19     7    24 1   
    20     7    37 1   
    21     7    38 1   
    22     8    22 ar  
    23     8    23 ar  
    24     8    39 1   
    25     9    15 2   
    26     9    16 1   
    27    10    17 ar  
    28    10    19 ar  
    29    10    20 2   
    30    11    19 ar  
    31    11    40 1   
    32    12    16 1   
    33    12    17 2   
    34    12    41 1   
    35    13    14 ar  
    36    13    21 ar  
    37    13    42 1   
    38    14    23 ar  
    39    14    43 1   
    40    16    20 1   
    41    17    18 ar  
    42    18    44 1   
    43    19    45 1   
    44    20    46 1   
    45    21    22 ar  
    46    22    47 1   
    47    24    25 1   
    48    25    26 2   
    49    25    27 1   
    50    27    28 1   
    51    27    29 1   
    52    27    48 1   
    53    28    49 1   
    54    28    50 1   
    55    28    51 1   
    56    29    52 1   
    57    29    53 1   
    58    29    54 1   
@<TRIPOS>SUBSTRUCTURE
     1 7TA         1 TEMP              0 ****  ****    0 ROOT
