@<TRIPOS>MOLECULE
7TD
   45    45     1     0     0
SMALL
bcc


@<TRIPOS>ATOM
      1 C1           1.5310     0.0000     0.0000 c3         1 7TD      -0.088300
      2 C2           2.0330     0.0000     1.4200 c          1 7TD       0.513100
      3 C3           0.0000     0.0000     0.0000 c3         1 7TD      -0.081800
      4 O1           2.3550    -1.0430     1.9490 o          1 7TD      -0.548100
      5 O2           4.0150    -5.7680    -4.6760 os         1 7TD      -0.250900
      6 O3           1.8580    -0.1990    -2.6690 o          1 7TD      -0.661100
      7 C11          2.6400    -2.3980    -2.7290 ca         1 7TD      -0.262600
      8 C12          2.7740    -2.3980    -4.1190 ca         1 7TD      -0.010500
      9 C13          3.2330    -3.5240    -4.7650 ca         1 7TD      -0.186500
     10 C15          5.2020    -8.8720    -5.4030 c1         1 7TD      -0.143100
     11 C16          4.9770   -10.0520    -6.5120 c3         1 7TD       0.133000
     12 C4          -0.5100     0.1280    -1.4370 c3         1 7TD      -0.012100
     13 C5          -0.5090    -1.3080     0.6080 c3         1 7TD      -0.012100
     14 N1          -0.4900     1.1340     0.7950 nz         1 7TD      -0.105600
     15 C6           4.8070    -8.0000    -4.7230 c1         1 7TD      -0.228100
     16 C7           4.3350    -6.9000    -3.8650 c3         1 7TD       0.305500
     17 C8           3.5630    -4.6610    -4.0360 ca         1 7TD       0.230100
     18 C9           3.4300    -4.6650    -2.6520 ca         1 7TD      -0.186500
     19 C10          2.9680    -3.5440    -1.9990 ca         1 7TD      -0.010500
     20 N2           2.0190    -1.1950    -0.6910 ns         1 7TD      -0.206900
     21 N3           2.1220     1.1580     2.1040 ns         1 7TD      -0.068400
     22 O4           2.7000     1.1750     3.3970 oh         1 7TD      -0.377100
     23 H1           1.8920     0.8850    -0.5100 h1         1 7TD       0.074700
     24 H2           2.4450    -1.5320    -4.6810 ha         1 7TD       0.110500
     25 H3           2.9550    -3.2370    -5.7720 ha         1 7TD       0.137000
     26 H4           5.0480   -10.9910    -5.9760 hc         1 7TD       0.034700
     27 H5           5.9550    -9.7230    -6.8410 hc         1 7TD       0.034700
     28 H6           4.4900    -9.5080    -7.3120 hc         1 7TD       0.034700
     29 H7          -1.5490     0.4260    -1.5050 hc         1 7TD       0.046367
     30 H8          -0.1400     1.0250    -1.9180 hc         1 7TD       0.046367
     31 H9          -0.6390    -0.6660    -2.1630 hc         1 7TD       0.046367
     32 H10          0.1050    -1.5160     1.4750 hc         1 7TD       0.046367
     33 H11         -0.3730    -1.9740    -0.2360 hc         1 7TD       0.046367
     34 H12         -1.4890    -1.0930     1.0180 hc         1 7TD       0.046367
     35 H13         -0.5350     1.0350     1.7900 hn         1 7TD       0.277800
     36 H14         -0.2320     1.8810     0.1820 hn         1 7TD       0.277800
     37 H16          3.4530    -7.3390    -3.4150 h1         1 7TD       0.020200
     38 H17          5.0630    -7.0820    -3.0830 h1         1 7TD       0.020200
     39 H18          4.0090    -5.3960    -2.1000 ha         1 7TD       0.137000
     40 H19          2.9700    -3.3150    -0.9410 ha         1 7TD       0.110500
     41 H20          2.2250    -1.8050     0.0750 hn         1 7TD       0.236500
     42 H21          1.8210     1.9530     1.5760 hn         1 7TD       0.140500
     43 H22          2.3760     1.9720     3.7810 ho         1 7TD       0.401000
     44 C14          2.1480    -1.1930    -2.0330 c          1 7TD       0.655700
     45 H131        -1.2400     1.0880     0.1350 hn         1 7TD       0.277800
@<TRIPOS>BOND
     1     1     2 1   
     2     1     3 1   
     3     1    20 1   
     4     1    23 1   
     5     2     4 2   
     6     2    21 1   
     7     3    12 1   
     8     3    13 1   
     9     3    14 1   
    10     5    16 1   
    11     5    17 1   
    12     6    44 2   
    13     7     8 ar  
    14     7    19 ar  
    15     7    44 1   
    16     8     9 ar  
    17     8    24 1   
    18     9    17 ar  
    19     9    25 1   
    20    10    11 1   
    21    10    15 3   
    22    11    26 1   
    23    11    27 1   
    24    11    28 1   
    25    12    29 1   
    26    12    30 1   
    27    12    31 1   
    28    13    32 1   
    29    13    33 1   
    30    13    34 1   
    31    14    35 1   
    32    14    36 1   
    33    14    45 1   
    34    15    16 1   
    35    16    37 1   
    36    16    38 1   
    37    17    18 ar  
    38    18    19 ar  
    39    18    39 1   
    40    19    40 1   
    41    20    41 1   
    42    20    44 1   
    43    21    22 1   
    44    21    42 1   
    45    22    43 1   
@<TRIPOS>SUBSTRUCTURE
     1 7TD         1 TEMP              0 ****  ****    0 ROOT
