@<TRIPOS>MOLECULE
molecule
   45    45     1     0     0
SMALL
bcc


@<TRIPOS>ATOM
      1 C1           1.5310     0.0000     0.0000 c3         1 7TD       0.004700
      2 C2           2.0330     0.0000     1.4200 c          1 7TD       0.622100
      3 C3           0.0000     0.0000     0.0000 c3         1 7TD       0.075200
      4 O1           2.3550    -1.0430     1.9490 o          1 7TD      -0.526100
      5 O2           4.0150    -5.7680    -4.6760 os         1 7TD      -0.264900
      6 O3           1.8580    -0.1990    -2.6690 o          1 7TD      -0.620100
      7 C11          2.6400    -2.3980    -2.7290 ca         1 7TD      -0.235600
      8 C12          2.7740    -2.3980    -4.1190 ca         1 7TD      -0.044000
      9 C13          3.2330    -3.5240    -4.7650 ca         1 7TD      -0.198000
     10 C15          5.2020    -8.8720    -5.4030 c1         1 7TD      -0.131100
     11 C16          4.9770   -10.0520    -6.5120 c3         1 7TD      -0.012000
     12 C4          -0.5100     0.1280    -1.4370 c3         1 7TD      -0.116600
     13 C5          -0.5090    -1.3080     0.6080 c3         1 7TD      -0.116600
     14 N1          -0.4900     1.1340     0.7950 nz         1 7TD      -0.886600
     15 C6           4.8070    -8.0000    -4.7230 c1         1 7TD      -0.205100
     16 C7           4.3350    -6.9000    -3.8650 c3         1 7TD       0.191500
     17 C8           3.5630    -4.6610    -4.0360 ca         1 7TD       0.214100
     18 C9           3.4300    -4.6650    -2.6520 ca         1 7TD      -0.198000
     19 C10          2.9680    -3.5440    -1.9990 ca         1 7TD      -0.044000
     20 N2           2.0190    -1.1950    -0.6910 ns         1 7TD      -0.570900
     21 N3           2.1220     1.1580     2.1040 ns         1 7TD      -0.484400
     22 O4           2.7000     1.1750     3.3970 oh         1 7TD      -0.300100
     23 H1           1.8920     0.8850    -0.5100 h1         1 7TD       0.098700
     24 H2           2.4450    -1.5320    -4.6810 ha         1 7TD       0.142500
     25 H3           2.9550    -3.2370    -5.7720 ha         1 7TD       0.162000
     26 H4           5.0480   -10.9910    -5.9760 hc         1 7TD       0.083033
     27 H5           5.9550    -9.7230    -6.8410 hc         1 7TD       0.083033
     28 H6           4.4900    -9.5080    -7.3120 hc         1 7TD       0.083033
     29 H7          -1.5490     0.4260    -1.5050 hc         1 7TD       0.082700
     30 H8          -0.1400     1.0250    -1.9180 hc         1 7TD       0.082700
     31 H9          -0.6390    -0.6660    -2.1630 hc         1 7TD       0.082700
     32 H10          0.1050    -1.5160     1.4750 hc         1 7TD       0.082700
     33 H11         -0.3730    -1.9740    -0.2360 hc         1 7TD       0.082700
     34 H12         -1.4890    -1.0930     1.0180 hc         1 7TD       0.082700
     35 H13         -0.5350     1.0350     1.7900 hn         1 7TD       0.484800
     36 H14         -0.2320     1.8810     0.1820 hn         1 7TD       0.484800
     37 H16          3.4530    -7.3390    -3.4150 h1         1 7TD       0.067200
     38 H17          5.0630    -7.0820    -3.0830 h1         1 7TD       0.067200
     39 H18          4.0090    -5.3960    -2.1000 ha         1 7TD       0.162000
     40 H19          2.9700    -3.3150    -0.9410 ha         1 7TD       0.142500
     41 H20          2.2250    -1.8050     0.0750 hn         1 7TD       0.364500
     42 H21          1.8210     1.9530     1.5760 hn         1 7TD       0.311500
     43 H22          2.3760     1.9720     3.7810 ho         1 7TD       0.409000
     44 C14          2.1480    -1.1930    -2.0330 c          1 7TD       0.718700
     45 H131        -1.2400     1.0880     0.1350 hn         1 7TD       0.484800
@<TRIPOS>BOND
     1    12     3 1
     2    14     3 1
     3    11    10 1
     4    10    15 3
     5     3    13 1
     6     3     1 1
     7    15    16 1
     8    16     5 1
     9     5    17 1
    10    18    17 ar
    11    18    19 ar
    12    17     9 ar
    13    19     7 ar
    14     9     8 ar
    15     7     8 ar
    16     7    44 1
    17    20    44 1
    18    20     1 1
    19    44     6 2
    20     1     2 1
    21     4     2 2
    22     2    21 1
    23    21    22 1
    24     1    23 1
    25     8    24 1
    26     9    25 1
    27    11    26 1
    28    11    27 1
    29    11    28 1
    30    12    29 1
    31    12    30 1
    32    12    31 1
    33    13    32 1
    34    13    33 1
    35    13    34 1
    36    14    35 1
    37    14    36 1
    38    16    37 1
    39    16    38 1
    40    18    39 1
    41    19    40 1
    42    20    41 1
    43    21    42 1
    44    22    43 1
    45    45    14 1
@<TRIPOS>SUBSTRUCTURE
     1 7TD         1 TEMP              0 ****  ****    0 ROOT
