@<TRIPOS>MOLECULE
7TJ
   62    65     1     0     0
SMALL
bcc


@<TRIPOS>ATOM
      1 C5           0.0000     0.0000     0.0000 c3         1 7TJ       0.063200
      2 C2           1.5070     0.0000     0.0000 ca         1 7TJ      -0.319900
      3 C1           2.2160     0.0000     1.1870 ca         1 7TJ       0.446200
      4 N2           3.5400     0.0000     1.1500 nb         1 7TJ      -0.608000
      5 C4           4.1880     0.0010     0.0010 ca         1 7TJ       0.601000
      6 Cl           5.9240     0.0010     0.0110 cl         1 7TJ      -0.047000
      7 N1           3.5550     0.0010    -1.1550 nb         1 7TJ      -0.593000
      8 C3           2.2230    -0.0050    -1.2000 cp         1 7TJ       0.483800
      9 C6           1.5140    -0.0110    -2.5010 cp         1 7TJ      -0.160500
     10 C11          0.4410     0.8550    -2.7160 ca         1 7TJ      -0.067500
     11 C10         -0.2170     0.8480    -3.9260 ca         1 7TJ      -0.099500
     12 C7           1.9200    -0.8780    -3.5150 ca         1 7TJ      -0.067500
     13 C8           1.2590    -0.8820    -4.7240 ca         1 7TJ      -0.099500
     14 C9           0.1870    -0.0210    -4.9330 ca         1 7TJ      -0.058400
     15 N3          -0.4820    -0.0270    -6.1590 n          1 7TJ      -0.012000
     16 C12         -0.5120     1.0870    -6.9150 c          1 7TJ       0.608700
     17 O1          -0.0240     2.1200    -6.4970 o          1 7TJ      -0.610100
     18 C14         -1.1370     1.0560    -8.2490 ca         1 7TJ      -0.205600
     19 C22         -2.2680     0.2650    -8.4770 ca         1 7TJ      -0.100000
     20 C23         -2.8460     0.2360    -9.7130 ca         1 7TJ      -0.180000
     21 C24         -2.3160     0.9920   -10.7550 ca         1 7TJ       0.186100
     22 O2          -2.8990     0.9570   -11.9790 oh         1 7TJ      -0.500100
     23 C25         -1.1950     1.7830   -10.5460 ca         1 7TJ      -0.235000
     24 C26         -0.6030     1.8230    -9.2960 ca         1 7TJ       0.230100
     25 O3           0.4900     2.5980    -9.0840 oh         1 7TJ      -0.454100
     26 C13         -1.1510    -1.2460    -6.6220 c3         1 7TJ       0.014300
     27 C15         -2.2270    -1.6320    -5.6400 ca         1 7TJ      -0.102300
     28 C20         -3.4620    -1.0140    -5.6890 ca         1 7TJ      -0.096000
     29 C19         -4.4480    -1.3690    -4.7880 ca         1 7TJ      -0.075500
     30 C16         -1.9800    -2.6100    -4.6940 ca         1 7TJ      -0.096000
     31 C17         -2.9670    -2.9650    -3.7940 ca         1 7TJ      -0.075500
     32 C18         -4.1990    -2.3430    -3.8380 ca         1 7TJ      -0.131300
     33 C21         -5.2750    -2.7300    -2.8570 c3         1 7TJ       0.110300
     34 N4          -6.0740    -3.8240    -3.4130 ns         1 7TJ      -0.153900
     35 C27         -7.1010    -4.3360    -2.7060 c          1 7TJ       0.505100
     36 O4          -7.3620    -3.8920    -1.6070 o          1 7TJ      -0.584100
     37 C28         -7.9240    -5.4610    -3.2780 c3         1 7TJ       0.508900
     38 F1          -8.9220    -5.8210    -2.3660 f          1 7TJ      -0.196633
     39 F2          -8.5150    -5.0440    -4.4760 f          1 7TJ      -0.196633
     40 F3          -7.0990    -6.5640    -3.5240 f          1 7TJ      -0.196633
     41 H51C        -0.3610    -0.5760    -0.8430 hc         1 7TJ       0.017033
     42 H52C        -0.3610    -0.4420     0.9210 hc         1 7TJ       0.017033
     43 H53C        -0.3610     1.0180    -0.0770 hc         1 7TJ       0.017033
     44 H1           1.6950    -0.0010     2.1370 h4         1 7TJ      -0.008900
     45 H11          0.1260     1.5330    -1.9320 ha         1 7TJ       0.116000
     46 H7           2.7550    -1.5490    -3.3520 ha         1 7TJ       0.116000
     47 H10         -1.0510     1.5190    -4.0930 ha         1 7TJ       0.115000
     48 H8           1.5730    -1.5570    -5.5100 ha         1 7TJ       0.115000
     49 H131        -0.4270    -2.0480    -6.7000 h1         1 7TJ       0.062200
     50 H132        -1.5960    -1.0660    -7.5940 h1         1 7TJ       0.062200
     51 H22         -2.6850    -0.3260    -7.6700 ha         1 7TJ       0.155000
     52 H23         -3.7210    -0.3790    -9.8840 ha         1 7TJ       0.119000
     53 H2          -2.5700     0.2170   -12.4630 ho         1 7TJ       0.409000
     54 H25         -0.7870     2.3710   -11.3590 ha         1 7TJ       0.128000
     55 H3           0.4070     3.4000    -9.5730 ho         1 7TJ       0.408000
     56 H20         -3.6570    -0.2510    -6.4320 ha         1 7TJ       0.118500
     57 H16         -1.0130    -3.0980    -4.6590 ha         1 7TJ       0.118500
     58 H19         -5.4160    -0.8830    -4.8240 ha         1 7TJ       0.112000
     59 H17         -2.7720    -3.7300    -3.0510 ha         1 7TJ       0.112000
     60 H211        -5.9140    -1.8760    -2.6670 h1         1 7TJ       0.035700
     61 H212        -4.8180    -3.0520    -1.9290 h1         1 7TJ       0.035700
     62 H4          -5.8460    -4.2040    -4.3100 hn         1 7TJ       0.184500
@<TRIPOS>BOND
     1     1     2 1   
     2     1    41 1   
     3     1    42 1   
     4     1    43 1   
     5     2     3 ar  
     6     2     8 ar  
     7     3     4 ar  
     8     3    44 1   
     9     4     5 ar  
    10     5     6 1   
    11     5     7 ar  
    12     7     8 ar  
    13     8     9 1   
    14     9    10 ar  
    15     9    12 ar  
    16    10    11 ar  
    17    10    45 1   
    18    11    14 ar  
    19    11    47 1   
    20    12    13 ar  
    21    12    46 1   
    22    13    14 ar  
    23    13    48 1   
    24    14    15 1   
    25    15    16 1   
    26    15    26 1   
    27    16    17 2   
    28    16    18 1   
    29    18    19 ar  
    30    18    24 ar  
    31    19    20 ar  
    32    19    51 1   
    33    20    21 ar  
    34    20    52 1   
    35    21    22 1   
    36    21    23 ar  
    37    22    53 1   
    38    23    24 ar  
    39    23    54 1   
    40    24    25 1   
    41    25    55 1   
    42    26    27 1   
    43    26    49 1   
    44    26    50 1   
    45    27    28 ar  
    46    27    30 ar  
    47    28    29 ar  
    48    28    56 1   
    49    29    32 ar  
    50    29    58 1   
    51    30    31 ar  
    52    30    57 1   
    53    31    32 ar  
    54    31    59 1   
    55    32    33 1   
    56    33    34 1   
    57    33    60 1   
    58    33    61 1   
    59    34    35 1   
    60    34    62 1   
    61    35    36 2   
    62    35    37 1   
    63    37    38 1   
    64    37    39 1   
    65    37    40 1   
@<TRIPOS>SUBSTRUCTURE
     1 7TJ         1 TEMP              0 ****  ****    0 ROOT
