@<TRIPOS>MOLECULE
molecule
   62    65     1     0     0
SMALL
bcc


@<TRIPOS>ATOM
      1 C5           0.0000     0.0000     0.0000 c3         1 7TJ      -0.042800
      2 C2           1.5070     0.0000     0.0000 ca         1 7TJ      -0.326900
      3 C1           2.2160     0.0000     1.1870 ca         1 7TJ       0.471200
      4 N2           3.5400     0.0000     1.1500 nb         1 7TJ      -0.728000
      5 C4           4.1880     0.0010     0.0010 ca         1 7TJ       0.771000
      6 Cl           5.9240     0.0010     0.0110 cl         1 7TJ      -0.106000
      7 N1           3.5550     0.0010    -1.1550 nb         1 7TJ      -0.718000
      8 C3           2.2230    -0.0050    -1.2000 cp         1 7TJ       0.534800
      9 C6           1.5140    -0.0110    -2.5010 cp         1 7TJ      -0.161500
     10 C11          0.4410     0.8550    -2.7160 ca         1 7TJ      -0.088000
     11 C10         -0.2170     0.8480    -3.9260 ca         1 7TJ      -0.131500
     12 C7           1.9200    -0.8780    -3.5150 ca         1 7TJ      -0.088000
     13 C8           1.2590    -0.8820    -4.7240 ca         1 7TJ      -0.131500
     14 C9           0.1870    -0.0210    -4.9330 ca         1 7TJ       0.077600
     15 N3          -0.4820    -0.0270    -6.1590 n          1 7TJ      -0.395000
     16 C12         -0.5120     1.0870    -6.9150 c          1 7TJ       0.684700
     17 O1          -0.0240     2.1200    -6.4970 o          1 7TJ      -0.562100
     18 C14         -1.1370     1.0560    -8.2490 ca         1 7TJ      -0.183600
     19 C22         -2.2680     0.2650    -8.4770 ca         1 7TJ      -0.102000
     20 C23         -2.8460     0.2360    -9.7130 ca         1 7TJ      -0.196000
     21 C24         -2.3160     0.9920   -10.7550 ca         1 7TJ       0.163100
     22 O2          -2.8990     0.9570   -11.9790 oh         1 7TJ      -0.519100
     23 C25         -1.1950     1.7830   -10.5460 ca         1 7TJ      -0.238000
     24 C26         -0.6030     1.8230    -9.2960 ca         1 7TJ       0.200100
     25 O3           0.4900     2.5980    -9.0840 oh         1 7TJ      -0.474100
     26 C13         -1.1510    -1.2460    -6.6220 c3         1 7TJ       0.107300
     27 C15         -2.2270    -1.6320    -5.6400 ca         1 7TJ      -0.101300
     28 C20         -3.4620    -1.0140    -5.6890 ca         1 7TJ      -0.119000
     29 C19         -4.4480    -1.3690    -4.7880 ca         1 7TJ      -0.107000
     30 C16         -1.9800    -2.6100    -4.6940 ca         1 7TJ      -0.119000
     31 C17         -2.9670    -2.9650    -3.7940 ca         1 7TJ      -0.107000
     32 C18         -4.1990    -2.3430    -3.8380 ca         1 7TJ      -0.120300
     33 C21         -5.2750    -2.7300    -2.8570 c3         1 7TJ       0.162300
     34 N4          -6.0740    -3.8240    -3.4130 ns         1 7TJ      -0.561900
     35 C27         -7.1010    -4.3360    -2.7060 c          1 7TJ       0.612100
     36 O4          -7.3620    -3.8920    -1.6070 o          1 7TJ      -0.546100
     37 C28         -7.9240    -5.4610    -3.2780 c3         1 7TJ       0.552900
     38 F1          -8.9220    -5.8210    -2.3660 f          1 7TJ      -0.211300
     39 F2          -8.5150    -5.0440    -4.4760 f          1 7TJ      -0.211300
     40 F3          -7.0990    -6.5640    -3.5240 f          1 7TJ      -0.211300
     41 H51C        -0.3610    -0.5760    -0.8430 hc         1 7TJ       0.051033
     42 H52C        -0.3610    -0.4420     0.9210 hc         1 7TJ       0.051033
     43 H53C        -0.3610     1.0180    -0.0770 hc         1 7TJ       0.051033
     44 H1           1.6950    -0.0010     2.1370 h4         1 7TJ       0.037100
     45 H11          0.1260     1.5330    -1.9320 ha         1 7TJ       0.145000
     46 H7           2.7550    -1.5490    -3.3520 ha         1 7TJ       0.145000
     47 H10         -1.0510     1.5190    -4.0930 ha         1 7TJ       0.144000
     48 H8           1.5730    -1.5570    -5.5100 ha         1 7TJ       0.144000
     49 H131        -0.4270    -2.0480    -6.7000 h1         1 7TJ       0.079200
     50 H132        -1.5960    -1.0660    -7.5940 h1         1 7TJ       0.079200
     51 H22         -2.6850    -0.3260    -7.6700 ha         1 7TJ       0.166000
     52 H23         -3.7210    -0.3790    -9.8840 ha         1 7TJ       0.145000
     53 H2          -2.5700     0.2170   -12.4630 ho         1 7TJ       0.428000
     54 H25         -0.7870     2.3710   -11.3590 ha         1 7TJ       0.153000
     55 H3           0.4070     3.4000    -9.5730 ho         1 7TJ       0.431000
     56 H20         -3.6570    -0.2510    -6.4320 ha         1 7TJ       0.141000
     57 H16         -1.0130    -3.0980    -4.6590 ha         1 7TJ       0.141000
     58 H19         -5.4160    -0.8830    -4.8240 ha         1 7TJ       0.140000
     59 H17         -2.7720    -3.7300    -3.0510 ha         1 7TJ       0.140000
     60 H211        -5.9140    -1.8760    -2.6670 h1         1 7TJ       0.066200
     61 H212        -4.8180    -3.0520    -1.9290 h1         1 7TJ       0.066200
     62 H4          -5.8460    -4.2040    -4.3100 hn         1 7TJ       0.330500
@<TRIPOS>BOND
     1     1     2 1   
     2     2     3 ar  
     3     2     8 ar  
     4     3     4 ar  
     5     4     5 ar  
     6     5     6 1   
     7     5     7 ar  
     8     7     8 ar  
     9     8     9 1   
    10     9    10 ar  
    11     9    12 ar  
    12    10    11 ar  
    13    11    14 ar  
    14    12    13 ar  
    15    13    14 ar  
    16    14    15 1   
    17    15    16 1   
    18    15    26 1   
    19    16    17 2   
    20    16    18 1   
    21    18    19 ar  
    22    18    24 ar  
    23    19    20 ar  
    24    20    21 ar  
    25    21    22 1   
    26    21    23 ar  
    27    23    24 ar  
    28    24    25 1   
    29    26    27 1   
    30    27    28 ar  
    31    27    30 ar  
    32    28    29 ar  
    33    29    32 ar  
    34    30    31 ar  
    35    31    32 ar  
    36    32    33 1   
    37    33    34 1   
    38    34    35 1   
    39    35    36 2   
    40    35    37 1   
    41    37    38 1   
    42    37    39 1   
    43    37    40 1   
    44     1    41 1   
    45     1    42 1   
    46     1    43 1   
    47     3    44 1   
    48    10    45 1   
    49    12    46 1   
    50    11    47 1   
    51    13    48 1   
    52    26    49 1   
    53    26    50 1   
    54    19    51 1   
    55    20    52 1   
    56    22    53 1   
    57    23    54 1   
    58    25    55 1   
    59    28    56 1   
    60    30    57 1   
    61    29    58 1   
    62    31    59 1   
    63    33    60 1   
    64    33    61 1   
    65    34    62 1   
@<TRIPOS>SUBSTRUCTURE
     1 7TJ         1 TEMP              0 ****  ****    0 ROOT
