@<TRIPOS>MOLECULE
molecule
   51    54     1     0     0
SMALL
bcc


@<TRIPOS>ATOM
      1 C01          0.0000     0.0000     0.0000 c3         1 7TL       0.134700
      2 O02          1.4290     0.0000     0.0000 os         1 7TL      -0.423900
      3 C03          2.0410     0.0000     1.2030 c          1 7TL       0.674300
      4 O04          1.3780    -0.0010     2.2230 o          1 7TL      -0.543000
      5 C05          3.4540     0.0000     1.2770 ce         1 7TL      -0.341400
      6 C06          4.1240     1.1600     1.1390 c2         1 7TL       0.222800
      7 N07          5.4920     1.1640     1.2060 nu         1 7TL      -0.706000
      8 C08          6.1870    -0.0210     1.0560 cf         1 7TL       0.601200
      9 N09          5.5970    -1.1680     1.1890 n2         1 7TL      -0.685900
     10 C10          4.1820    -1.2920     1.5140 c3         1 7TL       0.282000
     11 C11          4.0450    -1.6760     2.9650 ca         1 7TL      -0.078300
     12 C12          5.0020    -1.2740     3.8780 ca         1 7TL      -0.072000
     13 C13          4.8780    -1.6250     5.2090 ca         1 7TL      -0.167000
     14 C14          3.7950    -2.3810     5.6280 ca         1 7TL       0.131900
     15 C15          2.8380    -2.7840     4.7130 ca         1 7TL      -0.164000
     16 C16          2.9610    -2.4260     3.3820 ca         1 7TL       0.075400
     17 Cl1          1.7570    -2.9250     2.2350 cl         1 7TL      -0.105400
     18 F18          3.6750    -2.7260     6.9290 f          1 7TL      -0.146900
     19 C19          7.6260     0.0200     0.7400 cd         1 7TL       0.415100
     20 N20          8.3390     1.1010     0.5850 nc         1 7TL      -0.642000
     21 C21          9.6070     0.9160     0.3110 cc         1 7TL       0.363200
     22 C22         10.0040    -0.3610     0.2260 cd         1 7TL      -0.238400
     23 S23          8.6650    -1.3840     0.5150 ss         1 7TL      -0.111300
     24 C24          3.3730     2.4470     0.9120 c3         1 7TL       0.184000
     25 N25          3.5900     3.3470     2.0530 n3         1 7TL      -0.674600
     26 C26          2.9050     2.8440     3.2630 c3         1 7TL       0.089800
     27 C27          2.4260     4.0730     4.0560 c3         1 7TL       0.370600
     28 C28          2.8520     5.2930     3.2070 c3         1 7TL      -0.089400
     29 C29          3.0090     4.6900     1.7880 c3         1 7TL       0.054500
     30 C30          3.9510     5.5210     0.9580 c          1 7TL       0.898600
     31 O31          3.6560     6.8030     0.6890 o          1 7TL      -0.831300
     32 O32          4.9730     5.0360     0.5330 o          1 7TL      -0.831300
     33 F33          3.0450     4.1150     5.3100 f          1 7TL      -0.249300
     34 F34          1.0350     4.0460     4.2020 f          1 7TL      -0.249300
     35 H1          -0.3610    -0.9260     0.4320 h1         1 7TL       0.042033
     36 H2          -0.3610     0.8370     0.5860 h1         1 7TL       0.042033
     37 H3          -0.3610     0.0890    -1.0170 h1         1 7TL       0.042033
     38 H4           5.8480    -0.6830     3.5510 ha         1 7TL       0.150000
     39 H5           5.6270    -1.3100     5.9250 ha         1 7TL       0.144000
     40 H6           1.9900    -3.3730     5.0400 ha         1 7TL       0.151000
     41 H7          10.2910     1.7430     0.1640 h4         1 7TL       0.045100
     42 H8          11.0130    -0.6920     0.0080 h4         1 7TL       0.177000
     43 H9           2.3150     2.2350     0.8150 h1         1 7TL       0.073200
     44 H10          3.7310     2.9200     0.0060 h1         1 7TL       0.073200
     45 H12          3.5960     2.2650     3.8630 h1         1 7TL       0.063700
     46 H13          2.0550     2.2350     2.9790 h1         1 7TL       0.063700
     47 H14          3.7950     5.6920     3.5590 hc         1 7TL       0.080700
     48 H15          2.0790     6.0530     3.2150 hc         1 7TL       0.080700
     49 H16          2.0440     4.5980     1.3050 h1         1 7TL       0.035700
     50 H18          5.9860     2.0210     1.3610 hn         1 7TL       0.502800
     51 H19          3.7430    -2.0650     0.8940 h1         1 7TL       0.085700
@<TRIPOS>BOND
     1    33    27 1
     2    21    22 2
     3    21    20 1
     4    28    27 1
     5    28    29 1
     6    32    30 1
     7    34    27 1
     8    27    26 1
     9    22    23 1
    10    20    19 2
    11    30    31 1
    12    30    29 1
    13    29    25 1
    14    25    26 1
    15    25    24 1
    16    19    23 1
    17    19     8 1
    18     7     8 1
    19     7     6 1
    20     8     9 2
    21    24     6 1
    22     6     5 2
    23     9    10 1
    24     5    10 1
    25     5     3 1
    26    10    11 1
    27    12    13 ar
    28    12    11 ar
    29     4     3 2
    30    13    14 ar
    31     3     2 1
    32    11    16 ar
    33    14    18 1
    34    14    15 ar
    35    16    15 ar
    36    16    17 1
    37     2     1 1
    38     1    35 1
    39     1    36 1
    40     1    37 1
    41    12    38 1
    42    13    39 1
    43    15    40 1
    44    21    41 1
    45    22    42 1
    46    24    43 1
    47    24    44 1
    48    26    45 1
    49    26    46 1
    50    28    47 1
    51    28    48 1
    52    29    49 1
    53     7    50 1
    54    10    51 1
@<TRIPOS>SUBSTRUCTURE
     1 7TL         1 TEMP              0 ****  ****    0 ROOT
