@<TRIPOS>MOLECULE
7TL
   51    54     1     0     0
SMALL
bcc


@<TRIPOS>ATOM
      1 C01          0.0000     0.0000     0.0000 c3         1 7TL       0.257700
      2 O02          1.4290     0.0000     0.0000 os         1 7TL      -0.406900
      3 C03          2.0410     0.0000     1.2030 c          1 7TL       0.750300
      4 O04          1.3780    -0.0010     2.2230 o          1 7TL      -0.586000
      5 C05          3.4540     0.0000     1.2770 ce         1 7TL      -0.369400
      6 C06          4.1240     1.1600     1.1390 c2         1 7TL       0.053800
      7 N07          5.4920     1.1640     1.2060 nu         1 7TL      -0.223000
      8 C08          6.1870    -0.0210     1.0560 ce         1 7TL       0.415200
      9 N09          5.5970    -1.1680     1.1890 n2         1 7TL      -0.614900
     10 C10          4.1820    -1.2920     1.5140 c3         1 7TL       0.312000
     11 C11          4.0450    -1.6760     2.9650 ca         1 7TL      -0.093300
     12 C12          5.0020    -1.2740     3.8780 ca         1 7TL      -0.050000
     13 C13          4.8780    -1.6250     5.2090 ca         1 7TL      -0.133000
     14 C14          3.7950    -2.3810     5.6280 ca         1 7TL       0.102900
     15 C15          2.8380    -2.7840     4.7130 ca         1 7TL      -0.135000
     16 C16          2.9610    -2.4260     3.3820 ca         1 7TL       0.018400
     17 Cl1          1.7570    -2.9250     2.2350 cl         1 7TL      -0.024400
     18 F18          3.6750    -2.7260     6.9290 f          1 7TL      -0.133900
     19 C19          7.6260     0.0200     0.7400 cc         1 7TL       0.417100
     20 N20          8.3390     1.1010     0.5850 nd         1 7TL      -0.533000
     21 C21          9.6070     0.9160     0.3110 cd         1 7TL       0.352200
     22 C22         10.0040    -0.3610     0.2260 cc         1 7TL      -0.153400
     23 S23          8.6650    -1.3840     0.5150 ss         1 7TL      -0.249300
     24 C24          3.3730     2.4470     0.9120 c3         1 7TL       0.182000
     25 N25          3.5900     3.3470     2.0530 n3         1 7TL      -0.503600
     26 C26          2.9050     2.8440     3.2630 c3         1 7TL       0.072800
     27 C27          2.4260     4.0730     4.0560 c3         1 7TL       0.345600
     28 C28          2.8520     5.2930     3.2070 c3         1 7TL      -0.041400
     29 C29          3.0090     4.6900     1.7880 c3         1 7TL       0.027500
     30 C30          3.9510     5.5210     0.9580 c          1 7TL       0.981600
     31 O31          3.6560     6.8030     0.6890 o          1 7TL      -0.881800
     32 O32          4.9730     5.0360     0.5330 o          1 7TL      -0.881800
     33 F33          3.0450     4.1150     5.3100 f          1 7TL      -0.230800
     34 F34          1.0350     4.0460     4.2020 f          1 7TL      -0.230800
     35 H1          -0.3610    -0.9260     0.4320 h1         1 7TL      -0.002633
     36 H2          -0.3610     0.8370     0.5860 h1         1 7TL      -0.002633
     37 H3          -0.3610     0.0890    -1.0170 h1         1 7TL      -0.002633
     38 H4           5.8480    -0.6830     3.5510 ha         1 7TL       0.117000
     39 H5           5.6270    -1.3100     5.9250 ha         1 7TL       0.116000
     40 H6           1.9900    -3.3730     5.0400 ha         1 7TL       0.124000
     41 H7          10.2910     1.7430     0.1640 h4         1 7TL       0.001100
     42 H8          11.0130    -0.6920     0.0080 h4         1 7TL       0.155000
     43 H9           2.3150     2.2350     0.8150 h1         1 7TL       0.044200
     44 H10          3.7310     2.9200     0.0060 h1         1 7TL       0.044200
     45 H12          3.5960     2.2650     3.8630 h1         1 7TL       0.041200
     46 H13          2.0550     2.2350     2.9790 h1         1 7TL       0.041200
     47 H14          3.7950     5.6920     3.5590 hc         1 7TL       0.052200
     48 H15          2.0790     6.0530     3.2150 hc         1 7TL       0.052200
     49 H16          2.0440     4.5980     1.3050 h1         1 7TL       0.018700
     50 H18          5.9860     2.0210     1.3610 hn         1 7TL       0.340800
     51 H19          3.7430    -2.0650     0.8940 h1         1 7TL       0.042700
@<TRIPOS>BOND
     1     1     2 1   
     2     1    35 1   
     3     1    36 1   
     4     1    37 1   
     5     2     3 1   
     6     3     4 2   
     7     3     5 1   
     8     5     6 2   
     9     5    10 1   
    10     6     7 1   
    11     6    24 1   
    12     7     8 1   
    13     7    50 1   
    14     8     9 2   
    15     8    19 1   
    16     9    10 1   
    17    10    11 1   
    18    10    51 1   
    19    11    12 ar  
    20    11    16 ar  
    21    12    13 ar  
    22    12    38 1   
    23    13    14 ar  
    24    13    39 1   
    25    14    15 ar  
    26    14    18 1   
    27    15    16 ar  
    28    15    40 1   
    29    16    17 1   
    30    19    20 2   
    31    19    23 1   
    32    20    21 1   
    33    21    22 2   
    34    21    41 1   
    35    22    23 1   
    36    22    42 1   
    37    24    25 1   
    38    24    43 1   
    39    24    44 1   
    40    25    26 1   
    41    25    29 1   
    42    26    27 1   
    43    26    45 1   
    44    26    46 1   
    45    27    28 1   
    46    27    33 1   
    47    27    34 1   
    48    28    29 1   
    49    28    47 1   
    50    28    48 1   
    51    29    30 1   
    52    29    49 1   
    53    30    31 1   
    54    30    32 1   
@<TRIPOS>SUBSTRUCTURE
     1 7TL         1 TEMP              0 ****  ****    0 ROOT
