@<TRIPOS>MOLECULE
7TM
   90    94     1     0     0
SMALL
bcc


@<TRIPOS>ATOM
      1 CAA          0.0000     0.0000     0.0000 c3         1 7TM       0.005900
      2 CAV          1.5300     0.0000     0.0000 c3         1 7TM      -0.017400
      3 CAW          2.0400     0.0000     1.4430 c3         1 7TM      -0.087400
      4 CAX          3.5700     0.0000     1.4430 c3         1 7TM      -0.004400
      5 CAY          4.0800     0.0000     2.8840 c3         1 7TM      -0.058400
      6 CAZ          5.6110     0.0010     2.8850 c3         1 7TM       0.076000
      7 NBF          6.0990     0.0010     4.2660 ns         1 7TM      -0.160900
      8 CBI          7.4240     0.0000     4.5120 c          1 7TM       0.678100
      9 OAE          8.2140     0.0020     3.5880 o          1 7TM      -0.674000
     10 OBH          7.8730     0.0010     5.7810 os         1 7TM      -0.316200
     11 CBM          9.2200    -0.0180     5.9600 ca         1 7TM       0.126100
     12 CAM          9.9650    -1.1020     5.5170 ca         1 7TM      -0.107500
     13 CAK         11.3340    -1.1190     5.6990 ca         1 7TM      -0.086000
     14 CAL          9.8540     1.0490     6.5800 ca         1 7TM      -0.107500
     15 CAJ         11.2240     1.0280     6.7590 ca         1 7TM      -0.086000
     16 CBK         11.9630    -0.0560     6.3210 ca         1 7TM      -0.092300
     17 CBA         13.4570    -0.0770     6.5180 c3         1 7TM      -0.022100
     18 CBR         14.1290     0.7370     5.4110 c3         1 7TM       0.215500
     19 CBD         13.8460     0.0890     4.0410 c3         1 7TM       0.065800
     20 NBS         14.4960     0.8820     2.9950 nh         1 7TM      -0.305000
     21 CBC         13.6820     0.9090     1.7730 c3         1 7TM       0.230100
     22 CBP         12.3480     1.5430     2.0710 cc         1 7TM      -0.465900
     23 CAS         12.0840     2.8630     2.1400 cd         1 7TM       0.359200
     24 NBE         10.7820     3.0090     2.4270 nd         1 7TM      -0.640000
     25 CAT         10.2300     1.8330     2.5390 cc         1 7TM       0.231400
     26 NBU         11.1710     0.8900     2.3180 na         1 7TM       0.306100
     27 CAC         10.9710    -0.5620     2.3420 c3         1 7TM      -0.055400
     28 CBQ         15.8140     0.5180     2.7100 ca         1 7TM       0.066600
     29 CAR         16.2150     0.7150     1.3780 ca         1 7TM      -0.190000
     30 CAI         17.4970     0.4450     0.9780 ca         1 7TM      -0.036000
     31 CBJ         18.4320    -0.0330     1.9000 ca         1 7TM      -0.019000
     32 CAH         19.7810    -0.2960     1.4970 cg         1 7TM       0.243800
     33 NAD         20.8440    -0.5190     1.1640 n1         1 7TM      -0.396800
     34 CAU         18.0350    -0.2490     3.2210 ca         1 7TM      -0.008000
     35 CBN         16.7350     0.0020     3.6100 ca         1 7TM      -0.137300
     36 CBB         16.3300    -0.3560     5.0120 c3         1 7TM       0.218100
     37 NBT         15.5670     0.7440     5.6090 n3         1 7TM      -0.493500
     38 SBV         16.3140     1.9440     6.4720 sy         1 7TM       1.037200
     39 OAF         17.6240     2.0680     5.9360 o          1 7TM      -0.581300
     40 OAG         15.3950     3.0250     6.5340 o          1 7TM      -0.581300
     41 CBO         16.5060     1.3570     8.1230 ca         1 7TM      -0.205500
     42 CAP         17.6830     0.7400     8.5030 ca         1 7TM       0.046500
     43 CAN         17.8360     0.2790     9.7950 ca         1 7TM      -0.213500
     44 CBL         16.8080     0.4360    10.7140 ca         1 7TM       0.202100
     45 OBG         16.9550    -0.0160    11.9860 os         1 7TM      -0.303900
     46 CAB         15.8550     0.1800    12.8760 c3         1 7TM       0.238700
     47 CAO         15.6270     1.0570    10.3290 ca         1 7TM      -0.213500
     48 CAQ         15.4810     1.5210     9.0360 ca         1 7TM       0.046500
     49 H1          -0.3610    -0.8170     0.6130 hc         1 7TM       0.001033
     50 H2          -0.3610    -0.1230    -1.0140 hc         1 7TM       0.001033
     51 H3          -0.3610     0.9390     0.4010 hc         1 7TM       0.001033
     52 H4           1.8910    -0.8850    -0.5110 hc         1 7TM       0.012700
     53 H5           1.8910     0.8840    -0.5110 hc         1 7TM       0.012700
     54 H6           2.2560    -1.0160     1.7490 hc         1 7TM       0.032700
     55 H7           1.2820     0.4200     2.0930 hc         1 7TM       0.032700
     56 H8           3.9310     0.9030     0.9660 hc         1 7TM       0.012700
     57 H9           3.9310    -0.8640     0.8990 hc         1 7TM       0.012700
     58 H10          3.5160     0.7890     3.3680 hc         1 7TM       0.024700
     59 H11          3.7090    -0.9290     3.2990 hc         1 7TM       0.024700
     60 H12          5.9710     0.9670     2.5530 h1         1 7TM       0.027700
     61 H13          5.9720    -0.7690     2.2140 h1         1 7TM       0.027700
     62 H14          5.5840     0.4800     4.9780 hn         1 7TM       0.175500
     63 H15          9.4800    -1.9110     4.9850 ha         1 7TM       0.118000
     64 H16         11.9150    -1.9650     5.3530 ha         1 7TM       0.113000
     65 H17          9.2830     1.9200     6.8780 ha         1 7TM       0.118000
     66 H18         11.7200     1.8610     7.2420 ha         1 7TM       0.113000
     67 H19         13.6820    -0.0220     7.5760 hc         1 7TM       0.032200
     68 H20         13.8630    -0.9940     6.1100 hc         1 7TM       0.032200
     69 H21         13.7550     1.7540     5.4180 h1         1 7TM       0.077700
     70 H22         12.8250     0.3220     3.7630 h1         1 7TM       0.048700
     71 H23         13.9980    -0.9790     4.1360 h1         1 7TM       0.048700
     72 H24         13.5440    -0.1010     1.4080 h1         1 7TM       0.030200
     73 H25         14.1860     1.5000     1.0170 h1         1 7TM       0.030200
     74 H26         12.8080     3.6630     2.0500 h4         1 7TM       0.008100
     75 H27          9.1890     1.6370     2.7660 h5         1 7TM       0.049100
     76 H28         11.3360    -0.9920     1.4180 h1         1 7TM       0.036367
     77 H29          9.9140    -0.7780     2.4490 h1         1 7TM       0.036367
     78 H30         11.5120    -0.9870     3.1780 h1         1 7TM       0.036367
     79 H31         15.4980     0.6010     0.5740 ha         1 7TM       0.127000
     80 H32         17.7810     0.5830    -0.0590 ha         1 7TM       0.110000
     81 H33         18.7490    -0.6190     3.9470 ha         1 7TM       0.115000
     82 H34         15.3300    -0.7710     4.9970 h1         1 7TM       0.048700
     83 H35         17.0210    -1.0920     5.4040 h1         1 7TM       0.048700
     84 H36         18.4650     0.5690     7.7730 ha         1 7TM       0.120000
     85 H37         18.7590    -0.2050    10.0920 ha         1 7TM       0.126000
     86 H38         14.9250     0.0600    12.3340 h1         1 7TM       0.002033
     87 H39         15.9030     1.1780    13.2950 h1         1 7TM       0.002033
     88 H40         15.9030    -0.5490    13.6760 h1         1 7TM       0.002033
     89 H41         14.8230     1.1810    11.0440 ha         1 7TM       0.126000
     90 H42         14.5420     1.9600     8.7230 ha         1 7TM       0.120000
@<TRIPOS>BOND
     1     1     2 1   
     2     1    49 1   
     3     1    50 1   
     4     1    51 1   
     5     2     3 1   
     6     2    52 1   
     7     2    53 1   
     8     3     4 1   
     9     3    54 1   
    10     3    55 1   
    11     4     5 1   
    12     4    56 1   
    13     4    57 1   
    14     5     6 1   
    15     5    58 1   
    16     5    59 1   
    17     6     7 1   
    18     6    60 1   
    19     6    61 1   
    20     7     8 1   
    21     7    62 1   
    22     8     9 2   
    23     8    10 1   
    24    10    11 1   
    25    11    12 ar  
    26    11    14 ar  
    27    12    13 ar  
    28    12    63 1   
    29    13    16 ar  
    30    13    64 1   
    31    14    15 ar  
    32    14    65 1   
    33    15    16 ar  
    34    15    66 1   
    35    16    17 1   
    36    17    18 1   
    37    17    67 1   
    38    17    68 1   
    39    18    19 1   
    40    18    37 1   
    41    18    69 1   
    42    19    20 1   
    43    19    70 1   
    44    19    71 1   
    45    20    21 1   
    46    20    28 1   
    47    21    22 1   
    48    21    72 1   
    49    21    73 1   
    50    22    23 2   
    51    22    26 1   
    52    23    24 1   
    53    23    74 1   
    54    24    25 2   
    55    25    26 1   
    56    25    75 1   
    57    26    27 1   
    58    27    76 1   
    59    27    77 1   
    60    27    78 1   
    61    28    29 ar  
    62    28    35 ar  
    63    29    30 ar  
    64    29    79 1   
    65    30    31 ar  
    66    30    80 1   
    67    31    32 1   
    68    31    34 ar  
    69    32    33 3   
    70    34    35 ar  
    71    34    81 1   
    72    35    36 1   
    73    36    37 1   
    74    36    82 1   
    75    36    83 1   
    76    37    38 1   
    77    38    39 2   
    78    38    40 2   
    79    38    41 1   
    80    41    42 ar  
    81    41    48 ar  
    82    42    43 ar  
    83    42    84 1   
    84    43    44 ar  
    85    43    85 1   
    86    44    45 1   
    87    44    47 ar  
    88    45    46 1   
    89    46    86 1   
    90    46    87 1   
    91    46    88 1   
    92    47    48 ar  
    93    47    89 1   
    94    48    90 1   
@<TRIPOS>SUBSTRUCTURE
     1 7TM         1 TEMP              0 ****  ****    0 ROOT
