@<TRIPOS>MOLECULE
molecule
   90    94     1     0     0
SMALL
bcc


@<TRIPOS>ATOM
      1 CAA          0.0000     0.0000     0.0000 c3         1 7TM      -0.092100
      2 CAV          1.5300     0.0000     0.0000 c3         1 7TM      -0.076400
      3 CAW          2.0400     0.0000     1.4430 c3         1 7TM      -0.126400
      4 CAX          3.5700     0.0000     1.4430 c3         1 7TM      -0.065400
      5 CAY          4.0800     0.0000     2.8840 c3         1 7TM      -0.111400
      6 CAZ          5.6110     0.0010     2.8850 c3         1 7TM       0.136000
      7 NBF          6.0990     0.0010     4.2660 ns         1 7TM      -0.543900
      8 CBI          7.4240     0.0000     4.5120 c          1 7TM       0.738100
      9 OAE          8.2140     0.0020     3.5880 o          1 7TM      -0.626000
     10 OBH          7.8730     0.0010     5.7810 os         1 7TM      -0.339200
     11 CBM          9.2200    -0.0180     5.9600 ca         1 7TM       0.116100
     12 CAM          9.9650    -1.1020     5.5170 ca         1 7TM      -0.123500
     13 CAK         11.3340    -1.1190     5.6990 ca         1 7TM      -0.114500
     14 CAL          9.8540     1.0490     6.5800 ca         1 7TM      -0.123500
     15 CAJ         11.2240     1.0280     6.7590 ca         1 7TM      -0.114500
     16 CBK         11.9630    -0.0560     6.3210 ca         1 7TM      -0.083300
     17 CBA         13.4570    -0.0770     6.5180 c3         1 7TM      -0.078100
     18 CBR         14.1290     0.7370     5.4110 c3         1 7TM       0.253500
     19 CBD         13.8460     0.0890     4.0410 c3         1 7TM       0.137800
     20 NBS         14.4960     0.8820     2.9950 nh         1 7TM      -0.569000
     21 CBC         13.6820     0.9090     1.7730 c3         1 7TM       0.245100
     22 CBP         12.3480     1.5430     2.0710 cc         1 7TM      -0.277900
     23 CAS         12.0840     2.8630     2.1400 cd         1 7TM       0.351200
     24 NBE         10.7820     3.0090     2.4270 nd         1 7TM      -0.715000
     25 CAT         10.2300     1.8330     2.5390 cc         1 7TM       0.421400
     26 NBU         11.1710     0.8900     2.3180 na         1 7TM      -0.182900
     27 CAC         10.9710    -0.5620     2.3420 c3         1 7TM       0.019600
     28 CBQ         15.8140     0.5180     2.7100 ca         1 7TM       0.157600
     29 CAR         16.2150     0.7150     1.3780 ca         1 7TM      -0.203000
     30 CAI         17.4970     0.4450     0.9780 ca         1 7TM      -0.058000
     31 CBJ         18.4320    -0.0330     1.9000 ca         1 7TM      -0.062000
     32 CAH         19.7810    -0.2960     1.4970 cg         1 7TM       0.247800
     33 NAD         20.8440    -0.5190     1.1640 n1         1 7TM      -0.373800
     34 CAU         18.0350    -0.2490     3.2210 ca         1 7TM      -0.033000
     35 CBN         16.7350     0.0020     3.6100 ca         1 7TM      -0.140300
     36 CBB         16.3300    -0.3560     5.0120 c3         1 7TM       0.227100
     37 NBT         15.5670     0.7440     5.6090 n3         1 7TM      -0.787500
     38 SBV         16.3140     1.9440     6.4720 sy         1 7TM       1.414200
     39 OAF         17.6240     2.0680     5.9360 o          1 7TM      -0.630800
     40 OAG         15.3950     3.0250     6.5340 o          1 7TM      -0.630800
     41 CBO         16.5060     1.3570     8.1230 ca         1 7TM      -0.355500
     42 CAP         17.6830     0.7400     8.5030 ca         1 7TM       0.007500
     43 CAN         17.8360     0.2790     9.7950 ca         1 7TM      -0.216500
     44 CBL         16.8080     0.4360    10.7140 ca         1 7TM       0.192100
     45 OBG         16.9550    -0.0160    11.9860 os         1 7TM      -0.322900
     46 CAB         15.8550     0.1800    12.8760 c3         1 7TM       0.122700
     47 CAO         15.6270     1.0570    10.3290 ca         1 7TM      -0.216500
     48 CAQ         15.4810     1.5210     9.0360 ca         1 7TM       0.007500
     49 H1          -0.3610    -0.8170     0.6130 hc         1 7TM       0.033700
     50 H2          -0.3610    -0.1230    -1.0140 hc         1 7TM       0.033700
     51 H3          -0.3610     0.9390     0.4010 hc         1 7TM       0.033700
     52 H4           1.8910    -0.8850    -0.5110 hc         1 7TM       0.040700
     53 H5           1.8910     0.8840    -0.5110 hc         1 7TM       0.040700
     54 H6           2.2560    -1.0160     1.7490 hc         1 7TM       0.056200
     55 H7           1.2820     0.4200     2.0930 hc         1 7TM       0.056200
     56 H8           3.9310     0.9030     0.9660 hc         1 7TM       0.040200
     57 H9           3.9310    -0.8640     0.8990 hc         1 7TM       0.040200
     58 H10          3.5160     0.7890     3.3680 hc         1 7TM       0.053200
     59 H11          3.7090    -0.9290     3.2990 hc         1 7TM       0.053200
     60 H12          5.9710     0.9670     2.5530 h1         1 7TM       0.057700
     61 H13          5.9720    -0.7690     2.2140 h1         1 7TM       0.057700
     62 H14          5.5840     0.4800     4.9780 hn         1 7TM       0.320500
     63 H15          9.4800    -1.9110     4.9850 ha         1 7TM       0.146000
     64 H16         11.9150    -1.9650     5.3530 ha         1 7TM       0.140000
     65 H17          9.2830     1.9200     6.8780 ha         1 7TM       0.146000
     66 H18         11.7200     1.8610     7.2420 ha         1 7TM       0.140000
     67 H19         13.6820    -0.0220     7.5760 hc         1 7TM       0.060700
     68 H20         13.8630    -0.9940     6.1100 hc         1 7TM       0.060700
     69 H21         13.7550     1.7540     5.4180 h1         1 7TM       0.106700
     70 H22         12.8250     0.3220     3.7630 h1         1 7TM       0.066700
     71 H23         13.9980    -0.9790     4.1360 h1         1 7TM       0.066700
     72 H24         13.5440    -0.1010     1.4080 h1         1 7TM       0.058700
     73 H25         14.1860     1.5000     1.0170 h1         1 7TM       0.058700
     74 H26         12.8080     3.6630     2.0500 h4         1 7TM       0.047100
     75 H27          9.1890     1.6370     2.7660 h5         1 7TM       0.086100
     76 H28         11.3360    -0.9920     1.4180 h1         1 7TM       0.057700
     77 H29          9.9140    -0.7780     2.4490 h1         1 7TM       0.057700
     78 H30         11.5120    -0.9870     3.1780 h1         1 7TM       0.057700
     79 H31         15.4980     0.6010     0.5740 ha         1 7TM       0.141000
     80 H32         17.7810     0.5830    -0.0590 ha         1 7TM       0.141000
     81 H33         18.7490    -0.6190     3.9470 ha         1 7TM       0.145000
     82 H34         15.3300    -0.7710     4.9970 h1         1 7TM       0.080200
     83 H35         17.0210    -1.0920     5.4040 h1         1 7TM       0.080200
     84 H36         18.4650     0.5690     7.7730 ha         1 7TM       0.150000
     85 H37         18.7590    -0.2050    10.0920 ha         1 7TM       0.146000
     86 H38         14.9250     0.0600    12.3340 h1         1 7TM       0.046367
     87 H39         15.9030     1.1780    13.2950 h1         1 7TM       0.046367
     88 H40         15.9030    -0.5490    13.6760 h1         1 7TM       0.046367
     89 H41         14.8230     1.1810    11.0440 ha         1 7TM       0.146000
     90 H42         14.5420     1.9600     8.7230 ha         1 7TM       0.150000
@<TRIPOS>BOND
     1     4     5 1   
     2     4     3 1   
     3     5     6 1   
     4     2     3 1   
     5     2     1 1   
     6     6     7 1   
     7     7     8 1   
     8     8    10 1   
     9     8     9 2   
    10    10    11 1   
    11    12    11 ar  
    12    12    13 ar  
    13    11    14 ar  
    14    39    38 2   
    15    13    16 ar  
    16    40    38 2   
    17    14    15 ar  
    18    38    41 1   
    19    38    37 1   
    20    16    15 ar  
    21    16    17 1   
    22    41    42 ar  
    23    41    48 ar  
    24    42    43 ar  
    25    48    47 ar  
    26    37    18 1   
    27    37    36 1   
    28    43    44 ar  
    29    18    17 1   
    30    18    19 1   
    31    47    44 ar  
    32    44    45 1   
    33    45    46 1   
    34    36    35 1   
    35    19    20 1   
    36    35    28 ar  
    37    35    34 ar  
    38    20    21 1   
    39    20    28 1   
    40    21    22 1   
    41    28    29 ar  
    42    34    31 ar  
    43    27    26 1   
    44    22    26 1   
    45    22    23 2   
    46    29    30 ar  
    47    31    30 ar  
    48    31    32 1   
    49    26    25 1   
    50    32    33 3   
    51    23    24 1   
    52    25    24 2   
    53     1    49 1   
    54     1    50 1   
    55     1    51 1   
    56     2    52 1   
    57     2    53 1   
    58     3    54 1   
    59     3    55 1   
    60     4    56 1   
    61     4    57 1   
    62     5    58 1   
    63     5    59 1   
    64     6    60 1   
    65     6    61 1   
    66     7    62 1   
    67    12    63 1   
    68    13    64 1   
    69    14    65 1   
    70    15    66 1   
    71    17    67 1   
    72    17    68 1   
    73    18    69 1   
    74    19    70 1   
    75    19    71 1   
    76    21    72 1   
    77    21    73 1   
    78    23    74 1   
    79    25    75 1   
    80    27    76 1   
    81    27    77 1   
    82    27    78 1   
    83    29    79 1   
    84    30    80 1   
    85    34    81 1   
    86    36    82 1   
    87    36    83 1   
    88    42    84 1   
    89    43    85 1   
    90    46    86 1   
    91    46    87 1   
    92    46    88 1   
    93    47    89 1   
    94    48    90 1   
@<TRIPOS>SUBSTRUCTURE
     1 7TM         1 TEMP              0 ****  ****    0 ROOT
