@<TRIPOS>MOLECULE
molecule
   74    78     1     0     0
SMALL
bcc


@<TRIPOS>ATOM
      1 CAA          0.0000     0.0000     0.0000 c3         1 7TO       0.075700
      2 OBD          1.4280     0.0000     0.0000 os         1 7TO      -0.275900
      3 CBH          2.0460     0.0000     1.2110 ca         1 7TO       0.179100
      4 CAR          3.4310     0.0000     1.2840 ca         1 7TO      -0.205000
      5 CAT          4.0560    -0.0000     2.5170 ca         1 7TO       0.005000
      6 CAQ          1.2910     0.0050     2.3750 ca         1 7TO      -0.205000
      7 CAS          1.9210     0.0060     3.6050 ca         1 7TO       0.005000
      8 CBK          3.3030    -0.0000     3.6760 ca         1 7TO      -0.360500
      9 SBT          4.1020    -0.0010     5.2440 sy         1 7TO       1.389200
     10 OAF          3.1720    -0.5460     6.1700 o          1 7TO      -0.646300
     11 OAG          5.3980    -0.5460     5.0350 o          1 7TO      -0.646300
     12 NBP          4.3260     1.5810     5.6820 n3         1 7TO      -0.875500
     13 CAZ          3.3160     2.3120     6.4520 c3         1 7TO       0.052100
     14 CBJ          2.3610     3.0060     5.5220 ca         1 7TO      -0.248300
     15 CAX          1.0080     2.8870     5.7600 ca         1 7TO      -0.102000
     16 CBF          0.0860     3.5590     4.9550 ca         1 7TO      -0.083000
     17 CAK         -1.3190     3.4340     5.2030 cg         1 7TO       0.230800
     18 NAC         -2.4310     3.3440     5.4160 n1         1 7TO      -0.348800
     19 CAL          0.5510     4.3560     3.9050 ca         1 7TO      -0.045000
     20 CAU          1.8970     4.4480     3.6600 ca         1 7TO      -0.206000
     21 CBM          2.8270     3.7640     4.4570 ca         1 7TO       0.134600
     22 NBO          4.1600     3.8820     4.0510 nh         1 7TO      -0.642000
     23 CBA          4.3620     5.1000     3.2560 c3         1 7TO      -0.029900
     24 CBL          5.7930     5.1610     2.7850 cd         1 7TO      -0.223900
     25 CAV          6.2730     4.6970     1.6160 cc         1 7TO       0.274200
     26 NBC          7.5900     4.9450     1.5800 nc         1 7TO      -0.650000
     27 CAW          7.9450     5.5440     2.6850 cd         1 7TO       0.439400
     28 NBQ          6.8510     5.7020     3.4620 na         1 7TO      -0.182900
     29 CAB          6.8100     6.3300     4.7840 c3         1 7TO       0.043600
     30 CBB          5.1490     3.7860     5.1260 c3         1 7TO      -0.030200
     31 CBN          5.5330     2.3020     5.3260 c3         1 7TO       0.262500
     32 CAY          6.5690     2.1810     6.4450 c3         1 7TO      -0.527100
     33 CBG          7.0290     0.7500     6.5520 ca         1 7TO      -0.003300
     34 CAN          8.1160     0.3180     5.8150 ca         1 7TO      -0.090500
     35 CAP          8.5410    -0.9920     5.9100 ca         1 7TO      -0.118500
     36 CAM          6.3670    -0.1280     7.3900 ca         1 7TO      -0.090500
     37 CAO          6.7880    -1.4390     7.4900 ca         1 7TO      -0.118500
     38 CBI          7.8750    -1.8770     6.7470 ca         1 7TO       0.097100
     39 OBE          8.2910    -3.1670     6.8440 os         1 7TO      -0.427800
     40 SBS          7.6270    -4.1070     5.8470 s6         1 7TO       1.412500
     41 OAD          7.9970    -5.4050     6.2910 o          1 7TO      -0.547800
     42 OAE          6.2660    -3.6980     5.8310 o          1 7TO      -0.547800
     43 CBR          8.4240    -3.7250     4.2630 c3         1 7TO       0.491700
     44 FAI          7.8860    -4.5400     3.2610 f          1 7TO      -0.200300
     45 FAJ          8.2030    -2.3810     3.9410 f          1 7TO      -0.200300
     46 FAH          9.8000    -3.9580     4.3650 f          1 7TO      -0.200300
     47 H1          -0.3660     0.7580     0.6820 h1         1 7TO       0.050033
     48 H2          -0.8880    -0.5880    -0.1980 h1         1 7TO       0.050033
     49 H3          -0.1180     0.7570    -0.7660 h1         1 7TO       0.050033
     50 H4           4.1220    -0.2820     0.4980 ha         1 7TO       0.149500
     51 H5           5.1280    -0.1090     2.4050 ha         1 7TO       0.152000
     52 H6           0.2300     0.0080     2.1580 ha         1 7TO       0.149500
     53 H7           1.6800     0.0940     4.6570 ha         1 7TO       0.152000
     54 H8           2.4770     1.6500     6.6320 h1         1 7TO       0.214700
     55 H9           3.1040     3.2260     5.9100 h1         1 7TO       0.214700
     56 H10          0.2150     2.1670     5.5950 ha         1 7TO       0.220000
     57 H11         -0.0180     5.0340     3.2810 ha         1 7TO       0.146000
     58 H12          2.4670     5.1640     3.0800 ha         1 7TO       0.184000
     59 H13          3.6340     4.9760     2.4630 h1         1 7TO       0.147200
     60 H14          5.2760     4.9080     2.7080 h1         1 7TO       0.147200
     61 H15          5.3800     4.7590     1.0050 h4         1 7TO       0.053100
     62 H16          8.7330     6.0930     3.1860 h5         1 7TO       0.077100
     63 H17          6.8480     5.3480     5.2410 h1         1 7TO       0.080367
     64 H18          7.8280     6.6980     4.7630 h1         1 7TO       0.080367
     65 H19          5.9960     7.0220     4.9660 h1         1 7TO       0.080367
     66 H20          6.0190     3.4540     4.5710 h1         1 7TO       0.194200
     67 H21          4.9310     2.8890     5.6930 h1         1 7TO       0.194200
     68 H22          5.9370     1.9030     4.4030 h1         1 7TO       0.070700
     69 H23          6.4880     2.7470     7.3660 hc         1 7TO       0.216700
     70 H24          6.7710     1.2920     7.0310 hc         1 7TO       0.216700
     71 H25          8.2540     0.6850     4.8040 ha         1 7TO       0.176000
     72 H26          8.9870    -1.6030     5.1340 ha         1 7TO       0.171500
     73 H27          5.3060    -0.0770     7.6010 ha         1 7TO       0.176000
     74 H28          6.2590    -2.0980     8.1680 ha         1 7TO       0.171500
@<TRIPOS>BOND
     1    26    27 2   
     2    26    25 1   
     3    27    28 1   
     4    25    24 2   
     5    18    17 3   
     6    17    16 1   
     7    28    24 1   
     8    28    29 1   
     9    19    16 ar  
    10    19    20 ar  
    11    24    23 1   
    12    16    15 ar  
    13    20    21 ar  
    14    15    14 ar  
    15    21    22 1   
    16    21    14 ar  
    17    23    22 1   
    18    22    30 1   
    19    14    13 1   
    20     1     2 1   
    21    30    31 1   
    22     2     3 1   
    23    41    40 2   
    24    37    36 ar  
    25    37    38 ar  
    26    13    12 1   
    27    36    33 ar  
    28     3     4 ar  
    29     3     6 ar  
    30    39    40 1   
    31    39    38 1   
    32     4     5 ar  
    33    42    40 2   
    34    40    43 1   
    35    38    35 ar  
    36     6     7 ar  
    37     5     8 ar  
    38    31    12 1   
    39    31    32 1   
    40    12     9 1   
    41    33    32 1   
    42    33    34 ar  
    43     7     8 ar  
    44     8     9 1   
    45    35    34 ar  
    46     9    11 2   
    47     9    10 2   
    48    43    46 1   
    49    43    45 1   
    50    43    44 1   
    51     1    47 1   
    52     1    48 1   
    53     1    49 1   
    54     4    50 1   
    55     5    51 1   
    56     6    52 1   
    57     7    53 1   
    58    13    54 1   
    59    13    55 1   
    60    15    56 1   
    61    19    57 1   
    62    20    58 1   
    63    23    59 1   
    64    23    60 1   
    65    25    61 1   
    66    27    62 1   
    67    29    63 1   
    68    29    64 1   
    69    29    65 1   
    70    30    66 1   
    71    30    67 1   
    72    31    68 1   
    73    32    69 1   
    74    32    70 1   
    75    34    71 1   
    76    35    72 1   
    77    36    73 1   
    78    37    74 1   
@<TRIPOS>SUBSTRUCTURE
     1 7TO         1 TEMP              0 ****  ****    0 ROOT
