@<TRIPOS>MOLECULE
7TO
   74    82     1     0     0
SMALL
bcc


@<TRIPOS>ATOM
      1 CAA          0.0000     0.0000     0.0000 c3         1 7TO       0.001000
      2 OBD          1.4280     0.0000     0.0000 os         1 7TO      -0.138000
      3 CBH          2.0460     0.0000     1.2110 ca         1 7TO       0.146000
      4 CAR          3.4310     0.0000     1.2840 ca         1 7TO      -0.200000
      5 CAT          4.0560    -0.0000     2.5170 ca         1 7TO       0.038000
      6 CAQ          1.2910     0.0050     2.3750 ca         1 7TO      -0.200000
      7 CAS          1.9210     0.0060     3.6050 ca         1 7TO       0.038000
      8 CBK          3.3030    -0.0000     3.6760 ca         1 7TO      -0.660000
      9 SBT          4.1020    -0.0010     5.2440 s6         1 7TO       2.381000
     10 OAF          3.1720    -0.5460     6.1700 o          1 7TO      -0.866000
     11 OAG          5.3980    -0.5460     5.0350 o          1 7TO      -0.866000
     12 NBP          4.3260     1.5810     5.6820 n3         1 7TO      -0.648000
     13 CAZ          3.3160     2.3120     6.4520 c3         1 7TO      -0.216000
     14 CBJ          2.3610     3.0060     5.5220 c3         1 7TO      -0.221000
     15 CAX          1.0080     2.8870     5.7600 c2         1 7TO      -0.090000
     16 CBF          0.0860     3.5590     4.9550 c2         1 7TO      -0.030000
     17 CAK         -1.3190     3.4340     5.2030 c1         1 7TO      -0.110000
     18 NAC         -2.4310     3.3440     5.4160 n1         1 7TO      -0.037000
     19 CAL          0.5510     4.3560     3.9050 c2         1 7TO      -0.019000
     20 CAU          1.8970     4.4480     3.6600 c2         1 7TO      -0.199000
     21 CBM          2.8270     3.7640     4.4570 c2         1 7TO      -0.036000
     22 NBO          4.1600     3.8820     4.0510 n3         1 7TO       0.014000
     23 CBA          4.3620     5.1000     3.2560 c3         1 7TO      -0.263000
     24 CBL          5.7930     5.1610     2.7850 c3         1 7TO      -0.170000
     25 CAV          6.2730     4.6970     1.6160 c2         1 7TO      -0.226000
     26 NBC          7.5900     4.9450     1.5800 n2         1 7TO      -0.012000
     27 CAW          7.9450     5.5440     2.6850 c2         1 7TO      -0.240000
     28 NBQ          6.8510     5.7020     3.4620 n3         1 7TO       0.307000
     29 CAB          6.8100     6.3300     4.7840 c3         1 7TO      -0.108000
     30 CBB          5.1490     3.7860     5.1260 c3         1 7TO      -0.395000
     31 CBN          5.5330     2.3020     5.3260 DU         1 7TO       0.066000
     32 CAY          6.5690     2.1810     6.4450 c3         1 7TO      -0.591000
     33 CBG          7.0290     0.7500     6.5520 c3         1 7TO       0.064000
     34 CAN          8.1160     0.3180     5.8150 c2         1 7TO      -0.066500
     35 CAP          8.5410    -0.9920     5.9100 c2         1 7TO      -0.114000
     36 CAM          6.3670    -0.1280     7.3900 c2         1 7TO      -0.066500
     37 CAO          6.7880    -1.4390     7.4900 c2         1 7TO      -0.114000
     38 CBI          7.8750    -1.8770     6.7470 c2         1 7TO       0.097000
     39 OBE          8.2910    -3.1670     6.8440 os         1 7TO      -0.517000
     40 SBS          7.6270    -4.1070     5.8470 s6         1 7TO       2.430000
     41 OAD          7.9970    -5.4050     6.2910 o          1 7TO      -0.812500
     42 OAE          6.2660    -3.6980     5.8310 o          1 7TO      -0.812500
     43 CBR          8.4240    -3.7250     4.2630 c3         1 7TO      -0.098000
     44 FAI          7.8860    -4.5400     3.2610 f          1 7TO      -0.108667
     45 FAJ          8.2030    -2.3810     3.9410 f          1 7TO      -0.108667
     46 FAH          9.8000    -3.9580     4.3650 f          1 7TO      -0.108667
     47 H1          -0.3660     0.7580     0.6820 h1         1 7TO       0.045667
     48 H2          -0.8880    -0.5880    -0.1980 h1         1 7TO       0.045667
     49 H3          -0.1180     0.7570    -0.7660 h1         1 7TO       0.045667
     50 H4           4.1220    -0.2820     0.4980 ha         1 7TO       0.130500
     51 H5           5.1280    -0.1090     2.4050 ha         1 7TO       0.127000
     52 H6           0.2300     0.0080     2.1580 ha         1 7TO       0.130500
     53 H7           1.6800     0.0940     4.6570 ha         1 7TO       0.127000
     54 H8           2.4770     1.6500     6.6320 h1         1 7TO       0.137000
     55 H9           3.1040     3.2260     5.9100 DU         1 7TO       0.327000
     56 H10          0.2150     2.1670     5.5950 ha         1 7TO       0.190000
     57 H11         -0.0180     5.0340     3.2810 ha         1 7TO       0.115000
     58 H12          2.4670     5.1640     3.0800 ha         1 7TO       0.174000
     59 H13          3.6340     4.9760     2.4630 h1         1 7TO       0.088000
     60 H14          5.2760     4.9080     2.7080 DU         1 7TO       0.116000
     61 H15          5.3800     4.7590     1.0050 h4         1 7TO       0.150000
     62 H16          8.7330     6.0930     3.1860 h5         1 7TO       0.164000
     63 H17          6.8480     5.3480     5.2410 h1         1 7TO       0.088000
     64 H18          7.8280     6.6980     4.7630 h1         1 7TO       0.088000
     65 H19          5.9960     7.0220     4.9660 h1         1 7TO       0.088000
     66 H20          6.0190     3.4540     4.5710 h1         1 7TO       0.121000
     67 H21          4.9310     2.8890     5.6930 DU         1 7TO       0.328000
     68 H22          5.9370     1.9030     4.4030 ha         1 7TO       0.086000
     69 H23          6.4880     2.7470     7.3660 hc         1 7TO       0.170000
     70 H24          6.7710     1.2920     7.0310 DU         1 7TO       0.250000
     71 H25          8.2540     0.6850     4.8040 ha         1 7TO       0.142000
     72 H26          8.9870    -1.6030     5.1340 ha         1 7TO       0.134000
     73 H27          5.3060    -0.0770     7.6010 ha         1 7TO       0.142000
     74 H28          6.2590    -2.0980     8.1680 ha         1 7TO       0.134000
@<TRIPOS>BOND
     1     1     2 1   
     2     1    47 1   
     3     1    48 1   
     4     1    49 1   
     5     2     3 1   
     6     3     4 1   
     7     3     6 1   
     8     4     5 1   
     9     4    50 1   
    10     5     8 1   
    11     5    51 1   
    12     6     7 1   
    13     6    52 1   
    14     7     8 1   
    15     7    53 1   
    16     8     9 1   
    17     9    10 1   
    18     9    11 1   
    19     9    12 1   
    20    12    13 1   
    21    12    31 1   
    22    13    14 1   
    23    13    54 1   
    24    13    55 1   
    25    14    15 1   
    26    14    21 1   
    27    14    55 1   
    28    15    16 1   
    29    15    56 1   
    30    16    17 1   
    31    16    19 1   
    32    17    18 1   
    33    19    20 1   
    34    19    57 1   
    35    20    21 1   
    36    20    58 1   
    37    21    22 1   
    38    22    23 1   
    39    22    30 1   
    40    23    24 1   
    41    23    59 1   
    42    23    60 1   
    43    24    25 1   
    44    24    28 1   
    45    24    60 1   
    46    25    26 1   
    47    25    61 1   
    48    26    27 1   
    49    27    28 1   
    50    27    62 1   
    51    28    29 1   
    52    29    63 1   
    53    29    64 1   
    54    29    65 1   
    55    30    31 1   
    56    30    66 1   
    57    30    67 1   
    58    31    32 1   
    59    31    67 1   
    60    31    68 1   
    61    32    33 1   
    62    32    69 1   
    63    32    70 1   
    64    33    34 1   
    65    33    36 1   
    66    33    70 1   
    67    34    35 1   
    68    34    71 1   
    69    35    38 1   
    70    35    72 1   
    71    36    37 1   
    72    36    73 1   
    73    37    38 1   
    74    37    74 1   
    75    38    39 1   
    76    39    40 1   
    77    40    41 1   
    78    40    42 1   
    79    40    43 1   
    80    43    44 1   
    81    43    45 1   
    82    43    46 1   
@<TRIPOS>SUBSTRUCTURE
     1 7TO         1 TEMP              0 ****  ****    0 ROOT
