@<TRIPOS>MOLECULE
7TP
   76    81     1     0     0
SMALL
bcc


@<TRIPOS>ATOM
      1 CAA        -0.6520    0.3180    0.0770 c3        1 7TP      0.109700
      2 OBB         0.6910    0.7920    0.0190 os        1 7TP     -0.321900
      3 CBG         1.4760    0.5480    1.1210 ca        1 7TP      0.189100
      4 CAN         2.8030    1.0130    1.0210 ca        1 7TP     -0.212000
      5 CAQ         3.6660    0.8180    2.0870 ca        1 7TP      0.024500
      6 CAM         1.0380   -0.1130    2.2780 ca        1 7TP     -0.212000
      7 CAP         1.9280   -0.2920    3.3300 ca        1 7TP      0.024500
      8 CBJ         3.2480    0.1710    3.2610 ca        1 7TP     -0.419500
      9 SBR         4.3330   -0.1140    4.5130 sy        1 7TP      1.513200
     10 OAD         3.8140   -1.1760    5.2880 o         1 7TP     -0.651300
     11 OAE         5.6150   -0.2920    3.9490 o         1 7TP     -0.651300
     12 NBP         4.3110    1.2600    5.4120 n3        1 7TP     -0.786500
     13 CAX         3.1160    1.7210    6.0570 c3        1 7TP      0.278100
     14 CBI         2.3080    2.7750    5.3400 ca        1 7TP     -0.157300
     15 CAV         0.9260    2.6980    5.5120 ca        1 7TP     -0.062000
     16 CBH         0.0530    3.6090    4.9060 ca        1 7TP     -0.188500
     17 CBL        -1.3720    3.5170    5.0880 cc        1 7TP      0.362200
     18 OBC        -1.8490    2.4840    5.9020 os        1 7TP     -0.356800
     19 CAR        -2.4380    4.2700    4.6050 cd        1 7TP     -0.286300
     20 CAL        -3.6380    3.6860    5.1390 cd        1 7TP     -0.159300
     21 CBF        -3.2490    2.6080    5.9190 cc        1 7TP      0.126200
     22 CAG        -3.9660    1.6250    6.7170 c         1 7TP      0.495400
     23 OAC        -5.1950    1.6130    6.8090 o         1 7TP     -0.520100
     24 CAO         0.5950    4.6220    4.1020 ca        1 7TP     -0.064000
     25 CAS         1.9650    4.7270    3.9300 ca        1 7TP     -0.204000
     26 CBM         2.8640    3.8150    4.5430 ca        1 7TP      0.211600
     27 NBO         4.2470    3.9230    4.3340 nh        1 7TP     -0.674000
     28 CAY         4.7080    4.8640    3.3330 c3        1 7TP      0.295100
     29 CBK         6.1460    4.7280    2.9750 cc        1 7TP     -0.250900
     30 CAT         6.8470    3.6050    2.4840 cd        1 7TP      0.323200
     31 NBA         8.1700    3.9420    2.2190 nd        1 7TP     -0.662000
     32 CAU         8.2900    5.2490    2.5370 cc        1 7TP      0.397400
     33 NBQ         7.0820    5.7780    3.0140 na        1 7TP     -0.202900
     34 CAB         6.8400    7.1250    3.4060 c3        1 7TP      0.021600
     35 CAZ         5.1250    3.6190    5.4390 c3        1 7TP      0.198800
     36 CBN         5.4730    2.1060    5.5660 c3        1 7TP      0.226500
     37 CAW         6.2000    1.9520    6.9200 c3        1 7TP     -0.042100
     38 CBE         6.9380    0.6700    7.0560 ca        1 7TP     -0.135300
     39 CAJ         6.4980   -0.3120    7.9490 ca        1 7TP     -0.079000
     40 CAH         7.2100   -1.4970    8.1100 ca        1 7TP     -0.179000
     41 CBD         8.3800   -1.6990    7.3660 ca        1 7TP      0.129100
     42 OAF         9.1450   -2.8380    7.4790 oh        1 7TP     -0.498100
     43 CAI         8.8370   -0.7230    6.4630 ca        1 7TP     -0.179000
     44 CAK         8.1110    0.4520    6.3180 ca        1 7TP     -0.079000
     45 H1         -0.6720   -0.7930    0.1900 h1        1 7TP      0.050700
     46 H2         -1.0760    0.6240   -0.9130 h1        1 7TP      0.050700
     47 H3         -1.2060    0.8090    0.9140 h1        1 7TP      0.050700
     48 H4          3.1330    1.5160    0.1010 ha        1 7TP      0.150500
     49 H5          4.7130    1.1620    2.0090 ha        1 7TP      0.152000
     50 H6          0.0090   -0.4880    2.3620 ha        1 7TP      0.150500
     51 H7          1.5950   -0.8260    4.2390 ha        1 7TP      0.152000
     52 H8          2.4540    0.8160    6.2260 h1        1 7TP      0.059700
     53 H9          3.3760    2.1320    7.0780 h1        1 7TP      0.059700
     54 H10         0.5010    1.8940    6.1380 ha        1 7TP      0.147000
     55 H11        -2.3860    5.1360    3.9510 ha        1 7TP      0.165000
     56 H12        -4.6570    4.0270    4.9630 ha        1 7TP      0.175000
     57 H13        -3.3220    0.8840    7.2400 h4        1 7TP      0.019200
     58 H16        -0.0730    5.3460    3.6090 ha        1 7TP      0.137000
     59 H17         2.3380    5.5500    3.3010 ha        1 7TP      0.135000
     60 H18         4.1110    4.6750    2.3900 h1        1 7TP      0.049200
     61 H19         4.4980    5.9260    3.6690 h1        1 7TP      0.049200
     62 H20         6.4710    2.5940    2.3230 h4        1 7TP      0.052100
     63 H21         9.2010    5.8500    2.4490 h5        1 7TP      0.063100
     64 H22         6.0910    7.6040    2.7180 h1        1 7TP      0.055367
     65 H23         7.7990    7.7060    3.3640 h1        1 7TP      0.055367
     66 H24         6.4380    7.1560    4.4550 h1        1 7TP      0.055367
     67 H25         4.6570    3.9610    6.4080 h1        1 7TP      0.053700
     68 H26         6.0980    4.1710    5.3130 h1        1 7TP      0.053700
     69 H27         6.2070    1.8370    4.7430 h1        1 7TP      0.091700
     70 H28         6.9360    2.7990    7.0020 hc        1 7TP      0.050200
     71 H29         5.4660    2.0650    7.7610 hc        1 7TP      0.050200
     72 H30         5.5760   -0.1540    8.5300 ha        1 7TP      0.135000
     73 H31         6.8540   -2.2690    8.8050 ha        1 7TP      0.143000
     74 H32         8.6790   -3.4520    8.0650 ho        1 7TP      0.418000
     75 H33         9.7510   -0.9060    5.8810 ha        1 7TP      0.143000
     76 H34         8.4540    1.2160    5.6030 ha        1 7TP      0.135000
@<TRIPOS>BOND
     1    1    2 1
     2    1   45 1
     3    1   46 1
     4    1   47 1
     5    2    3 1
     6    3    4 ar
     7    3    6 ar
     8    4    5 ar
     9    4   48 1
    10    5    8 ar
    11    5   49 1
    12    6    7 ar
    13    6   50 1
    14    7    8 ar
    15    7   51 1
    16    8    9 1
    17    9   10 2
    18    9   11 2
    19    9   12 1
    20   12   13 1
    21   12   36 1
    22   13   14 1
    23   13   52 1
    24   13   53 1
    25   14   15 ar
    26   14   26 ar
    27   15   16 ar
    28   15   54 1
    29   16   17 1
    30   16   24 ar
    31   17   18 1
    32   17   19 2
    33   18   21 1
    34   19   20 1
    35   19   55 1
    36   20   21 2
    37   20   56 1
    38   21   22 1
    39   22   23 2
    40   22   57 1
    41   24   25 ar
    42   24   58 1
    43   25   26 ar
    44   25   59 1
    45   26   27 1
    46   27   28 1
    47   27   35 1
    48   28   29 1
    49   28   60 1
    50   28   61 1
    51   29   30 2
    52   29   33 1
    53   30   31 1
    54   30   62 1
    55   31   32 2
    56   32   33 1
    57   32   63 1
    58   33   34 1
    59   34   64 1
    60   34   65 1
    61   34   66 1
    62   35   36 1
    63   35   67 1
    64   35   68 1
    65   36   37 1
    66   36   69 1
    67   37   38 1
    68   37   70 1
    69   37   71 1
    70   38   39 ar
    71   38   44 ar
    72   39   40 ar
    73   39   72 1
    74   40   41 ar
    75   40   73 1
    76   41   42 1
    77   41   43 ar
    78   42   74 1
    79   43   44 ar
    80   43   75 1
    81   44   76 1
@<TRIPOS>SUBSTRUCTURE
     1 7TP         1 TEMP              0 ****  ****    0 ROOT
