@<TRIPOS>MOLECULE
molecule
   85    90     1     0     0
SMALL
bcc


@<TRIPOS>ATOM
      1 CAA          0.0000     0.0000     0.0000 c3         1 7TQ       0.117700
      2 OBG          1.4290     0.0000     0.0000 os         1 7TQ      -0.340900
      3 CBM          2.0460     0.0000     1.2110 ca         1 7TQ       0.174100
      4 CAS          3.4320     0.0000     1.2850 ca         1 7TQ      -0.233500
      5 CAU          4.0560     0.0010     2.5170 ca         1 7TQ       0.015500
      6 CAR          1.2910     0.0070     2.3750 ca         1 7TQ      -0.233500
      7 CAT          1.9210     0.0080     3.6050 ca         1 7TQ       0.015500
      8 CBP          3.3020     0.0020     3.6760 ca         1 7TQ      -0.313500
      9 SBW          4.1020     0.0030     5.2460 sy         1 7TQ       1.444200
     10 OAE          3.1700    -0.5410     6.1710 o          1 7TQ      -0.630300
     11 OAF          5.3970    -0.5420     5.0360 o          1 7TQ      -0.630300
     12 NBU          4.3250     1.5840     5.6820 n3         1 7TQ      -0.800500
     13 CBB          3.3140     2.3150     6.4500 c3         1 7TQ       0.226100
     14 CBO          2.3620     3.0090     5.5170 ca         1 7TQ      -0.130300
     15 CAY          1.0080     2.8760     5.7430 ca         1 7TQ      -0.066000
     16 CBJ          0.0860     3.5340     4.9270 ca         1 7TQ      -0.066000
     17 CAG         -1.3190     3.3920     5.1600 cg         1 7TQ       0.243800
     18 NAC         -2.4380     3.2780     5.3260 n1         1 7TQ      -0.367800
     19 CAM          0.5520     4.3350     3.8800 ca         1 7TQ      -0.052000
     20 CAV          1.8990     4.4490     3.6520 ca         1 7TQ      -0.183000
     21 CBR          2.8300     3.7700     4.4550 ca         1 7TQ       0.138600
     22 NBT          4.1610     3.8860     4.0470 nh         1 7TQ      -0.568000
     23 CBC          4.3640     5.1060     3.2550 c3         1 7TQ       0.210100
     24 CBQ          5.7980     5.1760     2.7980 cd         1 7TQ      -0.278900
     25 CAW          6.2950     4.7000     1.6400 cc         1 7TQ       0.351200
     26 NBE          7.6110     4.9610     1.6140 nc         1 7TQ      -0.687000
     27 CAX          7.9470     5.5820     2.7110 cd         1 7TQ       0.388400
     28 NBV          6.8440     5.7400     3.4750 na         1 7TQ      -0.206900
     29 CAB          6.7820     6.3880     4.7880 c3         1 7TQ      -0.004400
     30 CBD          5.1510     3.7880     5.1220 c3         1 7TQ       0.140800
     31 CBS          5.5330     2.3040     5.3240 c3         1 7TQ       0.247500
     32 CBA          6.5690     2.1840     6.4440 c3         1 7TQ      -0.074100
     33 CBL          7.0280     0.7530     6.5520 ca         1 7TQ      -0.110300
     34 CAO          6.3590    -0.1260     7.3850 ca         1 7TQ      -0.113500
     35 CAQ          6.7780    -1.4380     7.4860 ca         1 7TQ      -0.088500
     36 CAN          8.1150     0.3190     5.8160 ca         1 7TQ      -0.113500
     37 CAP          8.5370    -0.9920     5.9140 ca         1 7TQ      -0.088500
     38 CBN          7.8710    -1.8740     6.7520 ca         1 7TQ       0.110100
     39 OBH          8.2860    -3.1650     6.8510 os         1 7TQ      -0.343200
     40 CBI          9.4990    -3.3780     7.3960 c          1 7TQ       0.731100
     41 OAD         10.1290    -2.4480     7.8580 o          1 7TQ      -0.602000
     42 NBF         10.0130    -4.6230     7.4290 ns         1 7TQ      -0.548900
     43 CAZ         11.3330    -4.8540     8.0220 c3         1 7TQ       0.158300
     44 CBK         11.6730    -6.3200     7.9340 ca         1 7TQ      -0.092300
     45 CAK         12.3410    -6.8090     6.8260 ca         1 7TQ      -0.111500
     46 CAI         12.6530    -8.1530     6.7450 ca         1 7TQ      -0.137000
     47 CAH         12.2970    -9.0090     7.7710 ca         1 7TQ      -0.143000
     48 CAJ         11.6290    -8.5200     8.8780 ca         1 7TQ      -0.137000
     49 CAL         11.3220    -7.1740     8.9620 ca         1 7TQ      -0.111500
     50 H1          -0.2610    -0.9860     0.3650 h1         1 7TQ       0.052700
     51 H2          -0.2190     0.8160     0.6780 h1         1 7TQ       0.052700
     52 H3          -0.4270     0.4460    -0.8900 h1         1 7TQ       0.052700
     53 H4           4.0010    -0.2670     0.4030 ha         1 7TQ       0.145500
     54 H5           5.0940    -0.2060     2.2870 ha         1 7TQ       0.157500
     55 H6           0.2640     0.1830     2.0800 ha         1 7TQ       0.145500
     56 H7           1.1490     0.1610     4.3490 ha         1 7TQ       0.157500
     57 H8           3.2490     1.5720     7.2360 h1         1 7TQ       0.074700
     58 H9           3.5500     2.9810     7.2710 h1         1 7TQ       0.074700
     59 H10          0.9150     2.0370     6.4220 ha         1 7TQ       0.158000
     60 H11         -0.3070     4.9740     3.7140 ha         1 7TQ       0.153000
     61 H12          2.5300     5.0790     3.0380 ha         1 7TQ       0.156000
     62 H13          4.1220     5.2510     2.2090 h1         1 7TQ       0.069700
     63 H14          3.8380     5.8660     3.8200 h1         1 7TQ       0.069700
     64 H15          5.5360     4.4000     0.9280 h4         1 7TQ       0.046100
     65 H16          8.9940     5.7860     2.9010 h5         1 7TQ       0.074100
     66 H17          6.5560     7.3110     4.2680 h1         1 7TQ       0.079367
     67 H18          5.7300     6.2350     4.9950 h1         1 7TQ       0.079367
     68 H19          7.7710     6.4170     5.2300 h1         1 7TQ       0.079367
     69 H20          5.9400     4.5270     5.0640 h1         1 7TQ       0.056200
     70 H21          4.7580     3.9300     6.1210 h1         1 7TQ       0.056200
     71 H22          5.9360     1.9030     4.4020 h1         1 7TQ       0.081700
     72 H23          7.5840     2.5060     6.2440 hc         1 7TQ       0.064700
     73 H24          6.0400     2.6340     7.2750 hc         1 7TQ       0.064700
     74 H25          5.8710     0.6490     7.9650 ha         1 7TQ       0.135000
     75 H26          6.7060    -2.1610     8.2900 ha         1 7TQ       0.140500
     76 H27          8.5560     1.0860     5.1910 ha         1 7TQ       0.135000
     77 H28          9.4370    -1.3920     5.4610 ha         1 7TQ       0.140500
     78 H29          9.3550    -5.3710     7.3340 hn         1 7TQ       0.323500
     79 H30         12.0000    -4.5050     7.2430 h1         1 7TQ       0.061700
     80 H31         11.5600    -4.2120     8.8640 h1         1 7TQ       0.061700
     81 H32         12.8160    -6.0610     6.2030 ha         1 7TQ       0.141500
     82 H33         13.3380    -8.7100     6.1180 ha         1 7TQ       0.136000
     83 H34         12.3680   -10.0660     7.9950 ha         1 7TQ       0.141000
     84 H35         11.2300    -9.1540     9.6600 ha         1 7TQ       0.136000
     85 H36         11.4070    -6.9510    10.0190 ha         1 7TQ       0.141500
@<TRIPOS>BOND
     1    26    27 2   
     2    26    25 1   
     3    27    28 1   
     4    18    17 3   
     5    25    24 2   
     6    17    16 1   
     7    19    16 ar  
     8    19    20 ar  
     9    28    29 1   
    10    28    24 1   
    11    16    15 ar  
    12    20    21 ar  
    13    24    23 1   
    14    15    14 ar  
    15    21    14 ar  
    16    21    22 1   
    17    23    22 1   
    18    14    13 1   
    19    22    30 1   
    20    30    31 1   
    21     2     1 1   
    22     2     3 1   
    23    13    12 1   
    24     3     4 ar  
    25     3     6 ar  
    26     4     5 ar  
    27    32    31 1   
    28    32    33 1   
    29    31    12 1   
    30     6     7 ar  
    31    12     9 1   
    32     5     8 ar  
    33    34    33 ar  
    34    34    35 ar  
    35     7     8 ar  
    36     8     9 1   
    37    33    36 ar  
    38    35    38 ar  
    39     9    11 2   
    40     9    10 2   
    41    36    37 ar  
    42    38    37 ar  
    43    38    39 1   
    44    39    40 1   
    45    42    40 1   
    46    42    43 1   
    47    40    41 2   
    48    49    48 ar  
    49    49    44 ar  
    50    43    44 1   
    51    48    47 ar  
    52    44    45 ar  
    53    47    46 ar  
    54    45    46 ar  
    55     1    50 1   
    56     1    51 1   
    57     1    52 1   
    58     4    53 1   
    59     5    54 1   
    60     6    55 1   
    61     7    56 1   
    62    13    57 1   
    63    13    58 1   
    64    15    59 1   
    65    19    60 1   
    66    20    61 1   
    67    23    62 1   
    68    23    63 1   
    69    25    64 1   
    70    27    65 1   
    71    29    66 1   
    72    29    67 1   
    73    29    68 1   
    74    30    69 1   
    75    30    70 1   
    76    31    71 1   
    77    32    72 1   
    78    32    73 1   
    79    34    74 1   
    80    35    75 1   
    81    36    76 1   
    82    37    77 1   
    83    42    78 1   
    84    43    79 1   
    85    43    80 1   
    86    45    81 1   
    87    46    82 1   
    88    47    83 1   
    89    48    84 1   
    90    49    85 1   
@<TRIPOS>SUBSTRUCTURE
     1 7TQ         1 TEMP              0 ****  ****    0 ROOT
