@<TRIPOS>MOLECULE
7TR
   84    90     1     0     0
SMALL
bcc


@<TRIPOS>ATOM
      1 CAA          0.0000     0.0000     0.0000 c3         1 7TR      -0.124500
      2 CAW          1.5300     0.0000     0.0000 c3         1 7TR      -0.100000
      3 NBP          2.0170     0.0000     1.3820 n          1 7TR       0.014000
      4 CAX          2.2620     1.2680     2.0730 c3         1 7TR      -0.100000
      5 CAB          0.9860     1.7100     2.7940 c3         1 7TR      -0.124500
      6 CBF          2.2420    -1.1680     2.0170 c2         1 7TR       0.338000
      7 OAF          2.6470    -1.1680     3.1630 o          1 7TR      -0.452000
      8 OBE          2.0180    -2.3340     1.3810 os         1 7TR      -0.195000
      9 CBJ          2.3600    -3.4710     2.0420 ca         1 7TR       0.071000
     10 CAN          3.5340    -4.1360     1.7200 ca         1 7TR      -0.109500
     11 CAL          3.8790    -5.2930     2.3920 ca         1 7TR      -0.093500
     12 CAM          1.5380    -3.9680     3.0430 ca         1 7TR      -0.109500
     13 CAK          1.8880    -5.1240     3.7140 ca         1 7TR      -0.093500
     14 CBH          3.0560    -5.7880     3.3870 ca         1 7TR      -0.059000
     15 CAY          3.4350    -7.0490     4.1190 c3         1 7TR      -0.321000
     16 CBO          2.9880    -8.2650     3.3050 DU         1 7TR      -0.027000
     17 CBB          1.4480    -8.3080     3.2340 c3         1 7TR      -0.714000
     18 NBQ          1.0400    -9.4770     2.4520 nh         1 7TR       0.464000
     19 CBA         -0.1580    -9.1830     1.6520 c3         1 7TR      -0.362000
     20 CBM          0.1280    -8.0300     0.7250 c3         1 7TR      -0.306000
     21 CAT          0.8130    -8.0810    -0.4330 c2         1 7TR      -0.135000
     22 NBC          0.8420    -6.8450    -0.9520 n2         1 7TR      -0.083000
     23 CAU          0.2020    -6.0290    -0.1590 c2         1 7TR      -0.241000
     24 NBS         -0.2650    -6.7300     0.8960 n3         1 7TR       0.353000
     25 CAD         -1.0440    -6.1970     2.0170 c3         1 7TR      -0.133000
     26 CBN          0.8740   -10.6520     3.1880 ca         1 7TR      -0.161000
     27 CAS         -0.1080   -11.5300     2.6990 ca         1 7TR      -0.162000
     28 CAJ         -0.3380   -12.7400     3.3010 ca         1 7TR      -0.059000
     29 CBG          0.4140   -13.1200     4.4170 ca         1 7TR       0.033000
     30 CAI          0.1970   -14.3930     5.0370 c1         1 7TR      -0.101000
     31 NAE          0.0060   -15.3980     5.5300 n1         1 7TR      -0.047000
     32 CAV          1.3760   -12.2440     4.9190 ca         1 7TR      -0.034000
     33 CBK          1.5840   -11.0170     4.3220 ca         1 7TR      -0.050000
     34 CAZ          2.5500   -10.0650     4.9700 c3         1 7TR       0.025000
     35 NBR          3.4340    -9.4830     3.9560 n3         1 7TR      -0.541000
     36 SBT          4.8820   -10.1880     3.5690 s6         1 7TR       2.415000
     37 OAG          4.7280   -11.5790     3.8080 o          1 7TR      -0.858500
     38 OAH          5.2640    -9.6530     2.3090 o          1 7TR      -0.858500
     39 CBL          6.0710    -9.6120     4.7350 ca         1 7TR      -0.657000
     40 CAQ          6.7700    -8.4440     4.4880 ca         1 7TR       0.056500
     41 CAO          7.7030    -7.9910     5.4000 ca         1 7TR      -0.207500
     42 CBI          7.9380    -8.7070     6.5650 ca         1 7TR       0.166000
     43 OBD          8.8540    -8.2630     7.4650 os         1 7TR      -0.185000
     44 CAC          9.0430    -9.0510     8.6420 c3         1 7TR       0.049000
     45 CAP          7.2340    -9.8770     6.8100 ca         1 7TR      -0.207500
     46 CAR          6.2990   -10.3240     5.8970 ca         1 7TR       0.056500
     47 H1          -0.3610     0.7270    -0.7170 hc         1 7TR       0.047667
     48 H2          -0.3610     0.2580     0.9880 hc         1 7TR       0.047667
     49 H3          -0.3610    -0.9850    -0.2710 hc         1 7TR       0.047667
     50 H4           1.8920    -0.8840    -0.5110 h1         1 7TR       0.082500
     51 H5           1.8910     0.8850    -0.5110 h1         1 7TR       0.082500
     52 H6           2.5630     1.0700     3.0950 h1         1 7TR       0.082500
     53 H7           3.0490     1.8110     1.5630 h1         1 7TR       0.082500
     54 H8           1.2500     2.2680     3.6840 hc         1 7TR       0.047667
     55 H9           0.4090     0.8370     3.0730 hc         1 7TR       0.047667
     56 H10          0.3980     2.3360     2.1350 hc         1 7TR       0.047667
     57 H11          4.1790    -3.7490     0.9400 ha         1 7TR       0.110000
     58 H12          4.7960    -5.8120     2.1410 ha         1 7TR       0.114000
     59 H13          0.6220    -3.4490     3.2990 ha         1 7TR       0.110000
     60 H14          1.2460    -5.5120     4.4950 ha         1 7TR       0.114000
     61 H15          2.5450    -7.5100     4.5280 hc         1 7TR       0.212000
     62 H16          3.9140    -7.7350     3.4310 DU         1 7TR       0.219000
     63 H17          3.3990    -8.2140     2.3040 ha         1 7TR       0.066000
     64 H18          1.1600    -9.2130     2.7120 h1         1 7TR       0.175500
     65 H19          1.1100    -7.4220     2.7100 h1         1 7TR       0.175500
     66 H20         -0.9580    -9.8550     1.9390 h1         1 7TR       0.190000
     67 H21          0.0670    -9.3190     0.6010 DU         1 7TR       0.165000
     68 H22          1.2610    -8.9660    -0.8690 h4         1 7TR       0.150000
     69 H23          0.0600    -4.9670    -0.3190 h5         1 7TR       0.168000
     70 H24         -0.4670    -6.2800     2.9300 h1         1 7TR       0.077000
     71 H25         -1.9640    -6.7610     2.1180 h1         1 7TR       0.077000
     72 H26         -1.2780    -5.1550     1.8310 h1         1 7TR       0.077000
     73 H27         -1.0780   -11.1490     2.4060 ha         1 7TR       0.133000
     74 H28         -1.0960   -13.4060     2.9050 ha         1 7TR       0.117000
     75 H29          1.9880   -12.4910     5.7780 ha         1 7TR       0.121000
     76 H30          2.3370   -10.0100     6.0300 h1         1 7TR       0.083000
     77 H31          3.5590   -10.4300     4.8230 h1         1 7TR       0.083000
     78 H32          6.5860    -7.8850     3.5790 ha         1 7TR       0.118500
     79 H33          8.2500    -7.0760     5.2060 ha         1 7TR       0.127500
     80 H34          9.7190    -9.8690     8.4240 h1         1 7TR       0.041667
     81 H35          8.0890    -9.4470     8.9690 h1         1 7TR       0.041667
     82 H36          9.4650    -8.4330     9.4260 h1         1 7TR       0.041667
     83 H37          7.4160   -10.4380     7.7190 ha         1 7TR       0.127500
     84 H38          5.7460   -11.2360     6.0910 ha         1 7TR       0.118500
@<TRIPOS>BOND
     1     1     2 1   
     2     1    47 1   
     3     1    48 1   
     4     1    49 1   
     5     2     3 1   
     6     2    50 1   
     7     2    51 1   
     8     3     4 1   
     9     3     6 1   
    10     4     5 1   
    11     4    52 1   
    12     4    53 1   
    13     5    54 1   
    14     5    55 1   
    15     5    56 1   
    16     6     7 1   
    17     6     8 1   
    18     8     9 1   
    19     9    10 1   
    20     9    12 1   
    21    10    11 1   
    22    10    57 1   
    23    11    14 1   
    24    11    58 1   
    25    12    13 1   
    26    12    59 1   
    27    13    14 1   
    28    13    60 1   
    29    14    15 1   
    30    15    16 1   
    31    15    61 1   
    32    15    62 1   
    33    16    17 1   
    34    16    35 1   
    35    16    62 1   
    36    16    63 1   
    37    17    18 1   
    38    17    64 1   
    39    17    65 1   
    40    18    19 1   
    41    18    26 1   
    42    19    20 1   
    43    19    66 1   
    44    19    67 1   
    45    20    21 1   
    46    20    24 1   
    47    20    67 1   
    48    21    22 1   
    49    21    68 1   
    50    22    23 1   
    51    23    24 1   
    52    23    69 1   
    53    24    25 1   
    54    25    70 1   
    55    25    71 1   
    56    25    72 1   
    57    26    27 1   
    58    26    33 1   
    59    27    28 1   
    60    27    73 1   
    61    28    29 1   
    62    28    74 1   
    63    29    30 1   
    64    29    32 1   
    65    30    31 1   
    66    32    33 1   
    67    32    75 1   
    68    33    34 1   
    69    34    35 1   
    70    34    76 1   
    71    34    77 1   
    72    35    36 1   
    73    36    37 1   
    74    36    38 1   
    75    36    39 1   
    76    39    40 1   
    77    39    46 1   
    78    40    41 1   
    79    40    78 1   
    80    41    42 1   
    81    41    79 1   
    82    42    43 1   
    83    42    45 1   
    84    43    44 1   
    85    44    80 1   
    86    44    81 1   
    87    44    82 1   
    88    45    46 1   
    89    45    83 1   
    90    46    84 1   
@<TRIPOS>SUBSTRUCTURE
     1 7TR         1 TEMP              0 ****  ****    0 ROOT
