@<TRIPOS>MOLECULE
7TS
   34    35     1     0     0
SMALL
bcc


@<TRIPOS>ATOM
      1 N1           0.0000     0.0000     0.0000 nb         1 7TS      -0.587000
      2 C2           1.3180     0.0000     0.0000 ca         1 7TS       0.275600
      3 C2A          2.0640    -0.0010    -1.3100 c3         1 7TS      -0.021400
      4 C3           2.0260     0.0000     1.1930 ca         1 7TS      -0.006200
      5 O3           3.3860     0.0000     1.1880 oh         1 7TS      -0.502100
      6 C4           1.3250     0.0010     2.3950 ca         1 7TS      -0.164300
      7 C4A          2.0540     0.0020     3.7130 c3         1 7TS       0.226100
      8 C5          -0.0590     0.0010     2.3490 ca         1 7TS      -0.122600
      9 C6          -0.6940     0.0010     1.1210 ca         1 7TS       0.412200
     10 C5A         -0.8640     0.0010     3.6230 c3         1 7TS       0.312700
     11 O4P         -2.2580     0.0020     3.3070 os         1 7TS      -0.472200
     12 P           -3.4120     0.0020     4.4300 p5         1 7TS       0.660900
     13 O1P         -4.8510    -0.1300     3.7200 o          1 7TS      -0.746167
     14 O2P         -3.2070    -1.1410     5.3470 o          1 7TS      -0.746167
     15 O3P         -3.3490     1.3780     5.2630 o          1 7TS      -0.746167
     16 N            2.2900     1.3840     4.1400 nu         1 7TS      -0.333000
     17 CA           2.9600     1.6430     5.3520 cc         1 7TS      -0.132200
     18 C            3.2770     2.9050     5.9240 c          1 7TS       0.557700
     19 O            3.0230     4.0080     5.4650 o          1 7TS      -0.703500
     20 ND           3.9150     2.6320     7.0800 ns         1 7TS       0.014600
     21 OG           4.0060     1.4380     7.2460 os         1 7TS      -0.173200
     22 CB           3.4470     0.7440     6.2450 cd         1 7TS      -0.124900
     23 H1           2.7680     0.8210    -1.3250 hc         1 7TS      -0.003967
     24 H2           1.3600     0.1110    -2.1260 hc         1 7TS      -0.003967
     25 H3           2.5980    -0.9370    -1.4200 hc         1 7TS      -0.003967
     26 H4           3.7000    -0.8740     1.0280 ho         1 7TS       0.382000
     27 H5           1.4540    -0.5080     4.4580 h1         1 7TS       0.016700
     28 H6           3.0030    -0.5090     3.6020 h1         1 7TS       0.016700
     29 H7          -1.7770     0.0010     1.0790 h4         1 7TS       0.043100
     30 H8          -0.6250     0.8860     4.2020 h1         1 7TS      -0.003300
     31 H9          -0.6260    -0.8830     4.2010 h1         1 7TS      -0.003300
     32 H12          1.9950     2.1440     3.5600 hn         1 7TS       0.310800
     33 H13          4.2670     3.3230     7.7120 hn         1 7TS       0.196500
     34 H14          3.3990    -0.3350     6.1600 h4         1 7TS       0.174000
@<TRIPOS>BOND
     1     1     2 ar  
     2     1     9 ar  
     3     2     3 1   
     4     2     4 ar  
     5     3    23 1   
     6     3    24 1   
     7     3    25 1   
     8     4     5 1   
     9     4     6 ar  
    10     5    26 1   
    11     6     7 1   
    12     6     8 ar  
    13     7    16 1   
    14     7    27 1   
    15     7    28 1   
    16     8     9 ar  
    17     8    10 1   
    18     9    29 1   
    19    10    11 1   
    20    10    30 1   
    21    10    31 1   
    22    11    12 1   
    23    12    13 1   
    24    12    14 1   
    25    12    15 1   
    26    16    17 1   
    27    16    32 1   
    28    17    18 1   
    29    17    22 2   
    30    18    19 2   
    31    18    20 1   
    32    20    21 1   
    33    20    33 1   
    34    21    22 1   
    35    22    34 1   
@<TRIPOS>SUBSTRUCTURE
     1 7TS         1 TEMP              0 ****  ****    0 ROOT
