@<TRIPOS>MOLECULE
7TX
   62    65     1     0     0
SMALL
bcc


@<TRIPOS>ATOM
      1 OAE          0.0000     0.0000     0.0000 o          1 7TX      -0.718500
      2 CBA          1.2150     0.0000     0.0000 c          1 7TX       0.600500
      3 NAU          1.8570     0.0000     1.1790 ns         1 7TX      -0.131500
      4 CAZ          3.2060     0.0000     1.2430 c          1 7TX       0.632100
      5 OAD          3.7810     0.0000     2.3150 o          1 7TX      -0.643500
      6 CBB          3.9660    -0.0020    -0.0210 ca         1 7TX      -0.217600
      7 CAK          5.3580    -0.0020    -0.0390 ca         1 7TX       0.014000
      8 CAG          6.0220    -0.0030    -1.2480 ca         1 7TX      -0.146000
      9 CAH          5.3110    -0.0030    -2.4390 ca         1 7TX      -0.028000
     10 CAL          3.9300    -0.0020    -2.4340 ca         1 7TX      -0.180000
     11 CBC          3.2460    -0.0030    -1.2280 ca         1 7TX      -0.039400
     12 NBG          1.8590    -0.0070    -1.1800 n          1 7TX       0.049000
     13 CAR          1.0900    -0.0130    -2.4260 c3         1 7TX       0.092300
     14 CAW          0.8260     1.4060    -2.8610 ca         1 7TX      -0.158300
     15 CAM         -0.3080     2.0580    -2.4270 ca         1 7TX      -0.033000
     16 CAI          1.7270     2.0520    -3.6910 ca         1 7TX      -0.051000
     17 CAJ          1.4940     3.3530    -4.0950 ca         1 7TX      -0.151000
     18 CAX          0.3590     4.0190    -3.6720 ca         1 7TX       0.191900
     19 FAF          0.1310     5.2900    -4.0670 f          1 7TX      -0.105900
     20 CAY         -0.5520     3.3720    -2.8290 ca         1 7TX      -0.189600
     21 CAV         -1.7650     4.0780    -2.3680 c          1 7TX       0.593700
     22 OAC         -1.9740     5.2220    -2.7200 o          1 7TX      -0.636100
     23 NAT         -2.6400     3.4530    -1.5550 ns         1 7TX      -0.185900
     24 CBE         -3.8430     4.1520    -1.0970 c3         1 7TX       0.019700
     25 CAS         -4.9250     3.1360    -0.6720 c3         1 7TX       0.138800
     26 CAO         -3.5360     4.9670     0.1770 c3         1 7TX      -0.042400
     27 CAQ         -4.4590     4.3750     1.2640 c3         1 7TX       0.144800
     28 NBF         -4.7490     2.9950     0.7970 n3         1 7TX      -0.544600
     29 CAP         -5.9710     2.4730     1.4250 c3         1 7TX       0.147800
     30 CAN         -5.6790     2.1080     2.8810 c3         1 7TX      -0.030400
     31 CBD         -6.9510     1.5640     3.5360 c3         1 7TX      -0.054700
     32 CAB         -6.6300     1.0830     4.9530 c3         1 7TX       0.003400
     33 CAA         -8.0050     2.6720     3.6000 c3         1 7TX       0.003400
     34 H1           1.3260    -0.0010     2.0270 hn         1 7TX       0.208500
     35 H2           5.9160    -0.0020     0.8900 ha         1 7TX       0.128000
     36 H3           7.1050    -0.0040    -1.2680 ha         1 7TX       0.113000
     37 H4           5.8440    -0.0040    -3.3820 ha         1 7TX       0.104000
     38 H5           3.3840    -0.0020    -3.3700 ha         1 7TX       0.128000
     39 H6           1.6530    -0.5270    -3.1960 h1         1 7TX       0.049700
     40 H7           0.1470    -0.5220    -2.2670 h1         1 7TX       0.049700
     41 H8          -1.0100     1.5520    -1.7740 ha         1 7TX       0.134000
     42 H9           2.6180     1.5350    -4.0260 ha         1 7TX       0.113000
     43 H10          2.2030     3.8520    -4.7440 ha         1 7TX       0.124000
     44 H11         -2.4720     2.5070    -1.2720 hn         1 7TX       0.191500
     45 H12         -4.2260     4.8030    -1.8740 h1         1 7TX       0.057700
     46 H13         -4.7610     2.1850    -1.1630 h1         1 7TX       0.020200
     47 H14         -5.9120     3.5210    -0.8970 h1         1 7TX       0.020200
     48 H15         -3.7690     6.0130     0.0170 hc         1 7TX       0.030700
     49 H16         -2.4980     4.8440     0.4590 hc         1 7TX       0.030700
     50 H17         -3.9470     4.3500     2.2190 h1         1 7TX       0.016700
     51 H18         -5.3750     4.9490     1.3340 h1         1 7TX       0.016700
     52 H20         -6.3040     1.5910     0.8910 h1         1 7TX       0.013200
     53 H21         -6.7460     3.2300     1.3910 h1         1 7TX       0.013200
     54 H22         -5.3480     2.9900     3.4150 hc         1 7TX       0.024700
     55 H23         -4.9040     1.3520     2.9160 hc         1 7TX       0.024700
     56 H24         -7.3330     0.7360     2.9510 hc         1 7TX       0.025700
     57 H25         -6.2960     1.9220     5.5520 hc         1 7TX       0.003533
     58 H26         -5.8490     0.3340     4.9120 hc         1 7TX       0.003533
     59 H27         -7.5190     0.6530     5.3980 hc         1 7TX       0.003533
     60 H28         -8.5090     2.7470     2.6440 hc         1 7TX       0.003533
     61 H29         -7.5230     3.6150     3.8290 hc         1 7TX       0.003533
     62 H30         -8.7270     2.4380     4.3730 hc         1 7TX       0.003533
@<TRIPOS>BOND
     1     1     2 2   
     2     2     3 1   
     3     2    12 1   
     4     3     4 1   
     5     3    34 1   
     6     4     5 2   
     7     4     6 1   
     8     6     7 ar  
     9     6    11 ar  
    10     7     8 ar  
    11     7    35 1   
    12     8     9 ar  
    13     8    36 1   
    14     9    10 ar  
    15     9    37 1   
    16    10    11 ar  
    17    10    38 1   
    18    11    12 1   
    19    12    13 1   
    20    13    14 1   
    21    13    39 1   
    22    13    40 1   
    23    14    15 ar  
    24    14    16 ar  
    25    15    20 ar  
    26    15    41 1   
    27    16    17 ar  
    28    16    42 1   
    29    17    18 ar  
    30    17    43 1   
    31    18    19 1   
    32    18    20 ar  
    33    20    21 1   
    34    21    22 2   
    35    21    23 1   
    36    23    24 1   
    37    23    44 1   
    38    24    25 1   
    39    24    26 1   
    40    24    45 1   
    41    25    28 1   
    42    25    46 1   
    43    25    47 1   
    44    26    27 1   
    45    26    48 1   
    46    26    49 1   
    47    27    28 1   
    48    27    50 1   
    49    27    51 1   
    50    28    29 1   
    51    29    30 1   
    52    29    52 1   
    53    29    53 1   
    54    30    31 1   
    55    30    54 1   
    56    30    55 1   
    57    31    32 1   
    58    31    33 1   
    59    31    56 1   
    60    32    57 1   
    61    32    58 1   
    62    32    59 1   
    63    33    60 1   
    64    33    61 1   
    65    33    62 1   
@<TRIPOS>SUBSTRUCTURE
     1 7TX         1 TEMP              0 ****  ****    0 ROOT
