@<TRIPOS>MOLECULE
molecule
   62    65     1     0     0
SMALL
bcc


@<TRIPOS>ATOM
      1 OAE          0.0000     0.0000     0.0000 o          1 7TX      -0.666500
      2 CBA          1.2150     0.0000     0.0000 c          1 7TX       0.821500
      3 NAU          1.8570     0.0000     1.1790 ns         1 7TX      -0.560500
      4 CAZ          3.2060     0.0000     1.2430 c          1 7TX       0.716100
      5 OAD          3.7810     0.0000     2.3150 o          1 7TX      -0.605500
      6 CBB          3.9660    -0.0020    -0.0210 ca         1 7TX      -0.208600
      7 CAK          5.3580    -0.0020    -0.0390 ca         1 7TX      -0.024000
      8 CAG          6.0220    -0.0030    -1.2480 ca         1 7TX      -0.173000
      9 CAH          5.3110    -0.0030    -2.4390 ca         1 7TX      -0.062000
     10 CAL          3.9300    -0.0020    -2.4340 ca         1 7TX      -0.195000
     11 CBC          3.2460    -0.0030    -1.2280 ca         1 7TX       0.104600
     12 NBG          1.8590    -0.0070    -1.1800 n          1 7TX      -0.359000
     13 CAR          1.0900    -0.0130    -2.4260 c3         1 7TX       0.164300
     14 CAW          0.8260     1.4060    -2.8610 ca         1 7TX      -0.154300
     15 CAM         -0.3080     2.0580    -2.4270 ca         1 7TX      -0.051000
     16 CAI          1.7270     2.0520    -3.6910 ca         1 7TX      -0.070000
     17 CAJ          1.4940     3.3530    -4.0950 ca         1 7TX      -0.186000
     18 CAX          0.3590     4.0190    -3.6720 ca         1 7TX       0.206900
     19 FAF          0.1310     5.2900    -4.0670 f          1 7TX      -0.104900
     20 CAY         -0.5520     3.3720    -2.8290 ca         1 7TX      -0.192600
     21 CAV         -1.7650     4.0780    -2.3680 c          1 7TX       0.671700
     22 OAC         -1.9740     5.2220    -2.7200 o          1 7TX      -0.597100
     23 NAT         -2.6400     3.4530    -1.5550 ns         1 7TX      -0.572900
     24 CBE         -3.8430     4.1520    -1.0970 c3         1 7TX       0.117700
     25 CAS         -4.9250     3.1360    -0.6720 c3         1 7TX       0.127800
     26 CAO         -3.5360     4.9670     0.1770 c3         1 7TX      -0.098400
     27 CAQ         -4.4590     4.3750     1.2640 c3         1 7TX       0.136800
     28 NBF         -4.7490     2.9950     0.7970 n3         1 7TX      -0.701600
     29 CAP         -5.9710     2.4730     1.4250 c3         1 7TX       0.148800
     30 CAN         -5.6790     2.1080     2.8810 c3         1 7TX      -0.073400
     31 CBD         -6.9510     1.5640     3.5360 c3         1 7TX      -0.079700
     32 CAB         -6.6300     1.0830     4.9530 c3         1 7TX      -0.088100
     33 CAA         -8.0050     2.6720     3.6000 c3         1 7TX      -0.088100
     34 H1           1.3260    -0.0010     2.0270 hn         1 7TX       0.366500
     35 H2           5.9160    -0.0020     0.8900 ha         1 7TX       0.162000
     36 H3           7.1050    -0.0040    -1.2680 ha         1 7TX       0.142000
     37 H4           5.8440    -0.0040    -3.3820 ha         1 7TX       0.138000
     38 H5           3.3840    -0.0020    -3.3700 ha         1 7TX       0.141000
     39 H6           1.6530    -0.5270    -3.1960 h1         1 7TX       0.078700
     40 H7           0.1470    -0.5220    -2.2670 h1         1 7TX       0.078700
     41 H8          -1.0100     1.5520    -1.7740 ha         1 7TX       0.158000
     42 H9           2.6180     1.5350    -4.0260 ha         1 7TX       0.137000
     43 H10          2.2030     3.8520    -4.7440 ha         1 7TX       0.152000
     44 H11         -2.4720     2.5070    -1.2720 hn         1 7TX       0.326500
     45 H12         -4.2260     4.8030    -1.8740 h1         1 7TX       0.082700
     46 H13         -4.7610     2.1850    -1.1630 h1         1 7TX       0.049200
     47 H14         -5.9120     3.5210    -0.8970 h1         1 7TX       0.049200
     48 H15         -3.7690     6.0130     0.0170 hc         1 7TX       0.061700
     49 H16         -2.4980     4.8440     0.4590 hc         1 7TX       0.061700
     50 H17         -3.9470     4.3500     2.2190 h1         1 7TX       0.043700
     51 H18         -5.3750     4.9490     1.3340 h1         1 7TX       0.043700
     52 H20         -6.3040     1.5910     0.8910 h1         1 7TX       0.035700
     53 H21         -6.7460     3.2300     1.3910 h1         1 7TX       0.035700
     54 H22         -5.3480     2.9900     3.4150 hc         1 7TX       0.050200
     55 H23         -4.9040     1.3520     2.9160 hc         1 7TX       0.050200
     56 H24         -7.3330     0.7360     2.9510 hc         1 7TX       0.048700
     57 H25         -6.2960     1.9220     5.5520 hc         1 7TX       0.033867
     58 H26         -5.8490     0.3340     4.9120 hc         1 7TX       0.033867
     59 H27         -7.5190     0.6530     5.3980 hc         1 7TX       0.033867
     60 H28         -8.5090     2.7470     2.6440 hc         1 7TX       0.033867
     61 H29         -7.5230     3.6150     3.8290 hc         1 7TX       0.033867
     62 H30         -8.7270     2.4380     4.3730 hc         1 7TX       0.033867
@<TRIPOS>BOND
     1     5     4 2
     2     3     4 1
     3     3     2 1
     4     4     6 1
     5     1     2 2
     6     2    12 1
     7     6     7 ar
     8     6    11 ar
     9     7     8 ar
    10    12    11 1
    11    12    13 1
    12    11    10 ar
    13    13    14 1
    14     8     9 ar
    15    10     9 ar
    16    15    14 ar
    17    15    20 ar
    18    14    16 ar
    19    24    23 1
    20    24    26 1
    21    24    25 1
    22    23    21 1
    23    26    27 1
    24    27    28 1
    25    21    20 1
    26    21    22 2
    27    20    18 ar
    28    30    31 1
    29    30    29 1
    30    25    28 1
    31    16    17 ar
    32    31    32 1
    33    31    33 1
    34    28    29 1
    35    18    17 ar
    36    18    19 1
    37     3    34 1
    38     7    35 1
    39     8    36 1
    40     9    37 1
    41    10    38 1
    42    13    39 1
    43    13    40 1
    44    15    41 1
    45    16    42 1
    46    17    43 1
    47    23    44 1
    48    24    45 1
    49    25    46 1
    50    25    47 1
    51    26    48 1
    52    26    49 1
    53    27    50 1
    54    27    51 1
    55    29    52 1
    56    29    53 1
    57    30    54 1
    58    30    55 1
    59    31    56 1
    60    32    57 1
    61    32    58 1
    62    32    59 1
    63    33    60 1
    64    33    61 1
    65    33    62 1
@<TRIPOS>SUBSTRUCTURE
     1 7TX         1 TEMP              0 ****  ****    0 ROOT
