@<TRIPOS>MOLECULE
7U1
   64    67     1     0     0
SMALL
bcc


@<TRIPOS>ATOM
      1 C4           0.0000     0.0000     0.0000 ca         1 7U1      -0.060000
      2 C5           1.3810     0.0000     0.0000 ca         1 7U1      -0.162300
      3 C6           2.1360     0.0010    -1.3040 c3         1 7U1       0.030300
      4 C7           4.0790    -0.0010     2.4800 c3         1 7U1       0.195400
      5 C8           5.5960    -0.0010     2.2830 c3         1 7U1      -0.036400
      6 C10          7.8050    -0.0010     3.4500 c3         1 7U1      -0.015400
      7 C13          2.4620    -2.5060    -1.0870 cx         1 7U1      -0.062300
      8 C15          3.5100    -3.4600    -1.6600 cx         1 7U1      -0.110400
      9 C17          1.4040    -0.3200    -4.0080 ca         1 7U1      -0.143600
     10 C20          1.5110     0.8220    -6.1190 ca         1 7U1      -0.107500
     11 C21          0.8140     1.8960    -5.5670 cp         1 7U1      -0.017000
     12 C22          0.4080     1.8540    -4.2320 ca         1 7U1      -0.107500
     13 C24         -0.1990     4.1570    -5.8520 ca         1 7U1      -0.097000
     14 C26          0.6020     4.2310    -8.5060 ca         1 7U1      -0.099000
     15 C28         -0.4850     5.2600    -6.6310 ca         1 7U1      -0.099000
     16 O3           1.6400    -2.6170    -3.6530 o          1 7U1      -0.658100
     17 C16          1.7190    -1.5000    -3.1780 c          1 7U1       0.601700
     18 C19          1.8050    -0.2780    -5.3460 ca         1 7U1      -0.078000
     19 C23          0.4990     3.0810    -6.4010 cp         1 7U1      -0.032000
     20 C25          0.8980     3.1240    -7.7350 ca         1 7U1      -0.097000
     21 C27         -0.0800     5.3000    -7.9520 ca         1 7U1      -0.102000
     22 C18          0.7000     0.7540    -3.4590 ca         1 7U1      -0.078000
     23 N            2.0950    -1.3400    -1.8940 n          1 7U1      -0.055800
     24 C14          2.0400    -3.8830    -1.6040 cx         1 7U1      -0.110400
     25 C3          -0.6930    -0.0010     1.1960 ca         1 7U1      -0.153000
     26 C2          -0.0040    -0.0060     2.3960 ca         1 7U1      -0.051000
     27 C1           1.3770    -0.0100     2.4010 ca         1 7U1      -0.209000
     28 C            2.0730     0.0000     1.2020 ca         1 7U1       0.179100
     29 O            3.4330    -0.0000     1.2050 os         1 7U1      -0.304900
     30 C9           6.2880    -0.0010     3.6480 c3         1 7U1      -0.032400
     31 C11          8.4970    -0.0010     4.8150 c3         1 7U1      -0.134400
     32 C12          9.9910    -0.0010     4.6200 c          1 7U1       0.979600
     33 O1          10.8060    -0.0010     5.6870 o          1 7U1      -0.904300
     34 O2          10.4560    -0.0020     3.5040 o          1 7U1      -0.904300
     35 H3          -0.5410     0.0040    -0.9380 ha         1 7U1       0.103000
     36 H5           3.1660     0.2850    -1.1250 h1         1 7U1       0.063200
     37 H4           1.6800     0.7090    -1.9850 h1         1 7U1       0.063200
     38 H7           3.7870     0.8840     3.0330 h1         1 7U1       0.000700
     39 H6           3.7860    -0.8860     3.0330 h1         1 7U1       0.000700
     40 H8           5.8880    -0.8850     1.7300 hc         1 7U1       0.024700
     41 H9           5.8890     0.8840     1.7300 hc         1 7U1       0.024700
     42 H12          8.0980     0.8830     2.8970 hc         1 7U1       0.022700
     43 H13          8.0970    -0.8860     2.8970 hc         1 7U1       0.022700
     44 H16          2.4760    -2.4130    -0.0070 h1         1 7U1       0.080700
     45 H20          3.8860    -3.2050    -2.6440 hc         1 7U1       0.065700
     46 H19          4.1610    -3.9320    -0.9340 hc         1 7U1       0.065700
     47 H23          1.8240     0.8540    -7.1560 ha         1 7U1       0.114000
     48 H24         -0.1360     2.6880    -3.8050 ha         1 7U1       0.114000
     49 H29         -1.0220     6.0980    -6.2050 ha         1 7U1       0.101000
     50 H22          2.3470    -1.1130    -5.7760 ha         1 7U1       0.130500
     51 H26          1.4320     2.2880    -8.1690 ha         1 7U1       0.112500
     52 H28         -0.3080     6.1670    -8.5600 ha         1 7U1       0.100000
     53 H21          0.3850     0.7220    -2.4230 ha         1 7U1       0.130500
     54 H17          1.7930    -4.6130    -0.8430 hc         1 7U1       0.065700
     55 H18          1.5180    -3.8860    -2.5530 hc         1 7U1       0.065700
     56 H2          -1.7760     0.0010     1.1940 ha         1 7U1       0.103000
     57 H1          -0.5490    -0.0100     3.3320 ha         1 7U1       0.099000
     58 H            1.9150    -0.0120     3.3410 ha         1 7U1       0.129000
     59 H11          5.9960     0.8840     4.2000 hc         1 7U1       0.005200
     60 H10          5.9950    -0.8860     4.2000 hc         1 7U1       0.005200
     61 H14          8.2050    -0.8860     5.3680 hc         1 7U1       0.003700
     62 H15          8.2050     0.8830     5.3680 hc         1 7U1       0.003700
     63 H25         -0.5170     4.1270    -4.8170 ha         1 7U1       0.112500
     64 H27          0.9140     4.2670    -9.5420 ha         1 7U1       0.101000
@<TRIPOS>BOND
     1     1     2 ar  
     2     1    25 ar  
     3     1    35 1   
     4     2     3 1   
     5     2    28 ar  
     6     3    23 1   
     7     3    36 1   
     8     3    37 1   
     9     4     5 1   
    10     4    29 1   
    11     4    38 1   
    12     4    39 1   
    13     5    30 1   
    14     5    40 1   
    15     5    41 1   
    16     6    30 1   
    17     6    31 1   
    18     6    42 1   
    19     6    43 1   
    20     7     8 1   
    21     7    23 1   
    22     7    24 1   
    23     7    44 1   
    24     8    24 1   
    25     8    45 1   
    26     8    46 1   
    27     9    17 1   
    28     9    18 ar  
    29     9    22 ar  
    30    10    11 ar  
    31    10    18 ar  
    32    10    47 1   
    33    11    12 ar  
    34    11    19 1   
    35    12    22 ar  
    36    12    48 1   
    37    13    15 ar  
    38    13    19 ar  
    39    13    63 1   
    40    14    20 ar  
    41    14    21 ar  
    42    14    64 1   
    43    15    21 ar  
    44    15    49 1   
    45    16    17 2   
    46    17    23 1   
    47    18    50 1   
    48    19    20 ar  
    49    20    51 1   
    50    21    52 1   
    51    22    53 1   
    52    24    54 1   
    53    24    55 1   
    54    25    26 ar  
    55    25    56 1   
    56    26    27 ar  
    57    26    57 1   
    58    27    28 ar  
    59    27    58 1   
    60    28    29 1   
    61    30    59 1   
    62    30    60 1   
    63    31    32 1   
    64    31    61 1   
    65    31    62 1   
    66    32    33 1   
    67    32    34 1   
@<TRIPOS>SUBSTRUCTURE
     1 7U1         1 TEMP              0 ****  ****    0 ROOT
