@<TRIPOS>MOLECULE
molecule
   64    67     1     0     0
SMALL
bcc


@<TRIPOS>ATOM
      1 C4           0.0000     0.0000     0.0000 ca         1 7U1      -0.084000
      2 C5           1.3810     0.0000     0.0000 ca         1 7U1      -0.149300
      3 C6           2.1360     0.0010    -1.3040 c3         1 7U1       0.119300
      4 C7           4.0790    -0.0010     2.4800 c3         1 7U1       0.130400
      5 C8           5.5960    -0.0010     2.2830 c3         1 7U1      -0.081400
      6 C10          7.8050    -0.0010     3.4500 c3         1 7U1      -0.061400
      7 C13          2.4620    -2.5060    -1.0870 cx         1 7U1       0.041700
      8 C15          3.5100    -3.4600    -1.6600 cx         1 7U1      -0.155900
      9 C17          1.4040    -0.3200    -4.0080 ca         1 7U1      -0.135600
     10 C20          1.5110     0.8220    -6.1190 ca         1 7U1      -0.130000
     11 C21          0.8140     1.8960    -5.5670 cp         1 7U1      -0.019000
     12 C22          0.4080     1.8540    -4.2320 ca         1 7U1      -0.130000
     13 C24         -0.1990     4.1570    -5.8520 ca         1 7U1      -0.116500
     14 C26          0.6020     4.2310    -8.5060 ca         1 7U1      -0.128000
     15 C28         -0.4850     5.2600    -6.6310 ca         1 7U1      -0.128000
     16 O3           1.6400    -2.6170    -3.6530 o          1 7U1      -0.617100
     17 C16          1.7190    -1.5000    -3.1780 c          1 7U1       0.676700
     18 C19          1.8050    -0.2780    -5.3460 ca         1 7U1      -0.097500
     19 C23          0.4990     3.0810    -6.4010 cp         1 7U1      -0.036000
     20 C25          0.8980     3.1240    -7.7350 ca         1 7U1      -0.116500
     21 C27         -0.0800     5.3000    -7.9520 ca         1 7U1      -0.127000
     22 C18          0.7000     0.7540    -3.4590 ca         1 7U1      -0.097500
     23 N            2.0950    -1.3400    -1.8940 n          1 7U1      -0.433800
     24 C14          2.0400    -3.8830    -1.6040 cx         1 7U1      -0.155900
     25 C3          -0.6930    -0.0010     1.1960 ca         1 7U1      -0.177000
     26 C2          -0.0040    -0.0060     2.3960 ca         1 7U1      -0.085000
     27 C1           1.3770    -0.0100     2.4010 ca         1 7U1      -0.221000
     28 C            2.0730     0.0000     1.2020 ca         1 7U1       0.165100
     29 O            3.4330    -0.0000     1.2050 os         1 7U1      -0.329900
     30 C9           6.2880    -0.0010     3.6480 c3         1 7U1      -0.086400
     31 C11          8.4970    -0.0010     4.8150 c3         1 7U1      -0.183400
     32 C12          9.9910    -0.0010     4.6200 c          1 7U1       0.890600
     33 O1          10.8060    -0.0010     5.6870 o          1 7U1      -0.855300
     34 O2          10.4560    -0.0020     3.5040 o          1 7U1      -0.855300
     35 H3          -0.5410     0.0040    -0.9380 ha         1 7U1       0.129000
     36 H5           3.1660     0.2850    -1.1250 h1         1 7U1       0.080700
     37 H4           1.6800     0.7090    -1.9850 h1         1 7U1       0.080700
     38 H7           3.7870     0.8840     3.0330 h1         1 7U1       0.033700
     39 H6           3.7860    -0.8860     3.0330 h1         1 7U1       0.033700
     40 H8           5.8880    -0.8850     1.7300 hc         1 7U1       0.055200
     41 H9           5.8890     0.8840     1.7300 hc         1 7U1       0.055200
     42 H12          8.0980     0.8830     2.8970 hc         1 7U1       0.048700
     43 H13          8.0970    -0.8860     2.8970 hc         1 7U1       0.048700
     44 H16          2.4760    -2.4130    -0.0070 h1         1 7U1       0.105700
     45 H20          3.8860    -3.2050    -2.6440 hc         1 7U1       0.088700
     46 H19          4.1610    -3.9320    -0.9340 hc         1 7U1       0.088700
     47 H23          1.8240     0.8540    -7.1560 ha         1 7U1       0.136000
     48 H24         -0.1360     2.6880    -3.8050 ha         1 7U1       0.136000
     49 H29         -1.0220     6.0980    -6.2050 ha         1 7U1       0.129000
     50 H22          2.3470    -1.1130    -5.7760 ha         1 7U1       0.153000
     51 H26          1.4320     2.2880    -8.1690 ha         1 7U1       0.134000
     52 H28         -0.3080     6.1670    -8.5600 ha         1 7U1       0.127000
     53 H21          0.3850     0.7220    -2.4230 ha         1 7U1       0.153000
     54 H17          1.7930    -4.6130    -0.8430 hc         1 7U1       0.088700
     55 H18          1.5180    -3.8860    -2.5530 hc         1 7U1       0.088700
     56 H2          -1.7760     0.0010     1.1940 ha         1 7U1       0.126000
     57 H1          -0.5490    -0.0100     3.3320 ha         1 7U1       0.128000
     58 H            1.9150    -0.0120     3.3410 ha         1 7U1       0.144000
     59 H11          5.9960     0.8840     4.2000 hc         1 7U1       0.030700
     60 H10          5.9950    -0.8860     4.2000 hc         1 7U1       0.030700
     61 H14          8.2050    -0.8860     5.3680 hc         1 7U1       0.027200
     62 H15          8.2050     0.8830     5.3680 hc         1 7U1       0.027200
     63 H25         -0.5170     4.1270    -4.8170 ha         1 7U1       0.134000
     64 H27          0.9140     4.2670    -9.5420 ha         1 7U1       0.129000
@<TRIPOS>BOND
     1    21    14 ar
     2    21    15 ar
     3    14    20 ar
     4    15    13 ar
     5    20    19 ar
     6    13    19 ar
     7    19    11 1
     8    11    10 ar
     9    11    12 ar
    10    10    18 ar
    11    12    22 ar
    12    18     9 ar
    13    22     9 ar
    14     9    17 1
    15     5     4 1
    16     5    30 1
    17     6    30 1
    18     6    31 1
    19    17    16 2
    20    17    23 1
    21     4    29 1
    22    29    28 1
    23     3     2 1
    24     3    23 1
    25    31    32 1
    26    28     2 ar
    27    28    27 ar
    28     2     1 ar
    29    23     7 1
    30    27    26 ar
    31     1    25 ar
    32    34    32 1
    33    26    25 ar
    34    32    33 1
    35     7     8 1
    36     7    24 1
    37     8    24 1
    38     1    35 1
    39     3    36 1
    40     3    37 1
    41     4    38 1
    42     4    39 1
    43     5    40 1
    44     5    41 1
    45     6    42 1
    46     6    43 1
    47     7    44 1
    48     8    45 1
    49     8    46 1
    50    10    47 1
    51    12    48 1
    52    13    63 1
    53    14    64 1
    54    15    49 1
    55    18    50 1
    56    20    51 1
    57    21    52 1
    58    22    53 1
    59    24    54 1
    60    24    55 1
    61    25    56 1
    62    26    57 1
    63    27    58 1
    64    30    59 1
    65    30    60 1
    66    31    61 1
    67    31    62 1
@<TRIPOS>SUBSTRUCTURE
     1 7U1         1 TEMP              0 ****  ****    0 ROOT
