@<TRIPOS>MOLECULE
molecule
   33    35     1     0     0
SMALL
bcc


@<TRIPOS>ATOM
      1 CAG          0.0000     0.0000     0.0000 c3         1 7U3      -0.084400
      2 CAF          1.5400     0.0000     0.0000 c3         1 7U3       0.142800
      3 NAK          1.9740     0.0000     1.4140 n7         1 7U3      -0.797200
      4 CAH          0.8590    -0.6110     2.1800 c3         1 7U3       0.145800
      5 CAS         -0.4040    -0.0320     1.4920 c3         1 7U3      -0.078700
      6 CAI         -1.6080    -0.9520     1.7080 c3         1 7U3       0.147400
      7 OAM         -1.9560    -0.9620     3.0940 os         1 7U3      -0.393400
      8 CAO         -3.0120    -1.7340     3.4570 cc         1 7U3       0.618200
      9 NAJ         -3.6540    -2.4270     2.5590 nd         1 7U3      -0.557300
     10 NAL         -4.7420    -3.2420     2.8730 ns         1 7U3      -0.290900
     11 CAP         -5.1980    -3.3620     4.1370 c          1 7U3       0.680100
     12 OAA         -6.1500    -4.0800     4.3870 o          1 7U3      -0.630500
     13 CAR         -4.5280    -2.6120     5.2070 ca         1 7U3      -0.097600
     14 CAQ         -3.4270    -1.7940     4.8620 ca         1 7U3      -0.148900
     15 CAD         -2.7660    -1.0730     5.8560 ca         1 7U3      -0.073000
     16 CAC         -3.1900    -1.1600     7.1540 ca         1 7U3      -0.152000
     17 CAN         -4.2750    -1.9590     7.4980 ca         1 7U3       0.140900
     18 FAB         -4.6730    -2.0280     8.7870 f          1 7U3      -0.130900
     19 CAE         -4.9450    -2.6870     6.5350 ca         1 7U3      -0.112000
     20 H1          -0.3750    -0.8800    -0.5080 hc         1 7U3       0.051700
     21 H2          -0.3750     0.9010    -0.4700 hc         1 7U3       0.051700
     22 H3           1.9090    -0.8890    -0.4980 h1         1 7U3       0.041200
     23 H4           1.9090     0.8890    -0.4980 h1         1 7U3       0.041200
     24 H5           2.7950    -0.5650     1.5110 hn         1 7U3       0.349800
     25 H7           0.8990    -0.3080     3.2190 h1         1 7U3       0.045700
     26 H8           0.8810    -1.6910     2.0880 h1         1 7U3       0.045700
     27 H9          -0.6080     0.9690     1.8520 hc         1 7U3       0.079700
     28 H10         -2.4470    -0.5900     1.1270 h1         1 7U3       0.051700
     29 H11         -1.3560    -1.9570     1.3920 h1         1 7U3       0.051700
     30 H12         -5.1960    -3.7520     2.1410 hn         1 7U3       0.371500
     31 H13         -1.9190    -0.4470     5.6020 ha         1 7U3       0.159000
     32 H14         -2.6740    -0.5980     7.9230 ha         1 7U3       0.153000
     33 H15         -5.7890    -3.3080     6.8090 ha         1 7U3       0.177000
@<TRIPOS>BOND
     1    12    11 2
     2    10    11 1
     3    10     9 1
     4    11    13 1
     5     9     8 2
     6    13    19 ar
     7    13    14 ar
     8    19    17 ar
     9     8    14 1
    10     8     7 1
    11    14    15 ar
    12    17    18 1
    13    17    16 ar
    14     6     7 1
    15     6     5 1
    16    15    16 ar
    17     5     4 1
    18     5     1 1
    19     4     3 1
    20     1     2 1
    21     3     2 1
    22     1    20 1
    23     1    21 1
    24     2    22 1
    25     2    23 1
    26     3    24 1
    27     4    25 1
    28     4    26 1
    29     5    27 1
    30     6    28 1
    31     6    29 1
    32    10    30 1
    33    15    31 1
    34    16    32 1
    35    19    33 1
@<TRIPOS>SUBSTRUCTURE
     1 7U3         1 TEMP              0 ****  ****    0 ROOT
