@<TRIPOS>MOLECULE
7U4
   63    66     1     0     0
SMALL
bcc


@<TRIPOS>ATOM
      1 N1           0.0000     0.0000     0.0000 nb         1 7U4      -0.587000
      2 C4          -7.0390    -0.0620     4.6930 ca         1 7U4      -0.052000
      3 C5          -5.8410     0.2700     5.2970 ca         1 7U4      -0.184300
      4 C6          -5.0240    -0.7920     5.9860 c3         1 7U4       0.038300
      5 C7          -3.7180     3.2310     5.6290 c3         1 7U4       0.189400
      6 C8          -2.4760     3.4680     6.4900 c3         1 7U4      -0.049400
      7 C10         -0.5750     5.0260     6.9340 c3         1 7U4      -0.015400
      8 C13         -5.2330     0.0910     8.3560 cx         1 7U4      -0.061300
      9 C15         -5.2250     1.5380     8.8520 cx         1 7U4      -0.118400
     10 C17         -2.2980     0.0010     5.9680 ca         1 7U4      -0.134600
     11 C20         -2.2220    -0.1140     3.5700 ca         1 7U4      -0.103500
     12 C21         -0.8330     0.0020     3.6140 cp         1 7U4      -0.020000
     13 C22         -0.1800     0.1150     4.8410 ca         1 7U4      -0.103500
     14 C24          1.3480     0.0010     2.3880 ca         1 7U4      -0.062000
     15 C26          1.3200     0.0000     0.0000 ca         1 7U4       0.395200
     16 N           -4.4060    -0.2290     7.1890 n          1 7U4      -0.068800
     17 C           -5.3920     1.5820     5.2670 ca         1 7U4       0.181100
     18 O           -4.2150     1.9120     5.8610 os         1 7U4      -0.301900
     19 C1          -6.1480     2.5570     4.6320 ca         1 7U4      -0.206000
     20 O1           1.8940     7.8000     7.4100 o          1 7U4      -0.904800
     21 C2          -7.3430     2.2200     4.0300 ca         1 7U4      -0.050000
     22 O2           1.6930     5.7170     8.1210 o          1 7U4      -0.904800
     23 C3          -7.7870     0.9100     4.0550 ca         1 7U4      -0.157000
     24 O3          -2.5210     0.1930     8.2850 o          1 7U4      -0.641100
     25 C9          -1.8830     4.8400     6.1640 c3         1 7U4      -0.030400
     26 C11         -0.0450     6.4430     6.7060 c3         1 7U4      -0.134400
     27 C12          1.2440     6.6260     7.4640 c          1 7U4       0.979600
     28 C14         -4.5110     0.4500     9.6560 cx         1 7U4      -0.118400
     29 C18         -0.9060     0.1160     6.0110 ca         1 7U4      -0.104500
     30 C19         -2.9510    -0.1130     4.7380 ca         1 7U4      -0.104500
     31 C23         -0.0490     0.0010     2.3550 cp         1 7U4      -0.143300
     32 C25         -0.6940     0.0010     1.1200 ca         1 7U4       0.399200
     33 C27          2.0330     0.0000     1.1860 ca         1 7U4      -0.216300
     34 H3          -7.3880    -1.0870     4.7120 ha         1 7U4       0.101000
     35 H4          -5.6670    -1.6180     6.2640 h1         1 7U4       0.059700
     36 H5          -4.2510    -1.1460     5.3150 h1         1 7U4       0.059700
     37 H7          -3.4580     3.3400     4.5830 h1         1 7U4       0.003200
     38 H6          -4.4810     3.9550     5.8890 h1         1 7U4       0.003200
     39 H8          -1.7420     2.6980     6.2840 hc         1 7U4       0.032200
     40 H9          -2.7510     3.4330     7.5380 hc         1 7U4       0.032200
     41 H13          0.1550     4.3060     6.5850 hc         1 7U4       0.023700
     42 H12         -0.7540     4.8740     7.9920 hc         1 7U4       0.023700
     43 H16         -6.1740    -0.4280     8.4880 h1         1 7U4       0.058700
     44 H19         -4.5790     2.2160     8.3060 hc         1 7U4       0.070950
     45 H20         -6.1580     1.8940     9.2720 hc         1 7U4       0.070950
     46 H23         -2.7280    -0.2020     2.6160 ha         1 7U4       0.113000
     47 H24          0.8990     0.2040     4.8730 ha         1 7U4       0.113000
     48 H25          1.8810     0.0010     3.3310 ha         1 7U4       0.122000
     49 H27          1.8530    -0.0010    -0.9430 h4         1 7U4      -0.024900
     50 H           -5.8000     3.5830     4.6090 ha         1 7U4       0.131000
     51 H1          -7.9320     2.9810     3.5310 ha         1 7U4       0.099000
     52 H2          -8.7250     0.6470     3.5820 ha         1 7U4       0.102000
     53 H11         -1.6880     4.9060     5.1000 hc         1 7U4       0.004200
     54 H10         -2.5840     5.6150     6.4510 hc         1 7U4       0.004200
     55 H14          0.1330     6.5950     5.6480 hc         1 7U4       0.003200
     56 H15         -0.7750     7.1620     7.0560 hc         1 7U4       0.003200
     57 H17         -3.4290     0.4620     9.6030 hc         1 7U4       0.070950
     58 H18         -5.0080     0.1400    10.5680 hc         1 7U4       0.070950
     59 H21         -0.3990     0.2040     6.9640 ha         1 7U4       0.161000
     60 H22         -4.0300    -0.2030     4.7040 ha         1 7U4       0.161000
     61 H26         -1.7770     0.0010     1.0800 h4         1 7U4      -0.013900
     62 H28          3.1160     0.0000     1.1730 ha         1 7U4       0.112000
     63 C16         -3.0780    -0.0040     7.2230 c          1 7U4       0.623700
@<TRIPOS>BOND
     1     1    15 ar  
     2     1    32 ar  
     3     2     3 ar  
     4     2    23 ar  
     5     2    34 1   
     6     3     4 1   
     7     3    17 ar  
     8     4    16 1   
     9     4    35 1   
    10     4    36 1   
    11     5     6 1   
    12     5    18 1   
    13     5    37 1   
    14     5    38 1   
    15     6    25 1   
    16     6    39 1   
    17     6    40 1   
    18     7    25 1   
    19     7    26 1   
    20     7    41 1   
    21     7    42 1   
    22     8     9 1   
    23     8    16 1   
    24     8    28 1   
    25     8    43 1   
    26     9    28 1   
    27     9    44 1   
    28     9    45 1   
    29    10    29 ar  
    30    10    30 ar  
    31    10    63 1   
    32    11    12 ar  
    33    11    30 ar  
    34    11    46 1   
    35    12    13 ar  
    36    12    31 1   
    37    13    29 ar  
    38    13    47 1   
    39    14    31 ar  
    40    14    33 ar  
    41    14    48 1   
    42    15    33 ar  
    43    15    49 1   
    44    16    63 1   
    45    17    18 1   
    46    17    19 ar  
    47    19    21 ar  
    48    19    50 1   
    49    20    27 1   
    50    21    23 ar  
    51    21    51 1   
    52    22    27 1   
    53    23    52 1   
    54    24    63 2   
    55    25    53 1   
    56    25    54 1   
    57    26    27 1   
    58    26    55 1   
    59    26    56 1   
    60    28    57 1   
    61    28    58 1   
    62    29    59 1   
    63    30    60 1   
    64    31    32 ar  
    65    32    61 1   
    66    33    62 1   
@<TRIPOS>SUBSTRUCTURE
     1 7U4         1 TEMP              0 ****  ****    0 ROOT
