@<TRIPOS>MOLECULE
molecule
   63    66     1     0     0
SMALL
bcc


@<TRIPOS>ATOM
      1 N1           0.0000     0.0000     0.0000 nb         1 7U4      -0.694000
      2 C4          -7.0390    -0.0620     4.6930 ca         1 7U4      -0.087000
      3 C5          -5.8410     0.2700     5.2970 ca         1 7U4      -0.169300
      4 C6          -5.0240    -0.7920     5.9860 c3         1 7U4       0.122300
      5 C7          -3.7180     3.2310     5.6290 c3         1 7U4       0.125400
      6 C8          -2.4760     3.4680     6.4900 c3         1 7U4      -0.084400
      7 C10         -0.5750     5.0260     6.9340 c3         1 7U4      -0.061400
      8 C13         -5.2330     0.0910     8.3560 cx         1 7U4       0.034700
      9 C15         -5.2250     1.5380     8.8520 cx         1 7U4      -0.156400
     10 C17         -2.2980     0.0010     5.9680 ca         1 7U4      -0.127600
     11 C20         -2.2220    -0.1140     3.5700 ca         1 7U4      -0.132500
     12 C21         -0.8330     0.0020     3.6140 cp         1 7U4      -0.022000
     13 C22         -0.1800     0.1150     4.8410 ca         1 7U4      -0.132500
     14 C24          1.3480     0.0010     2.3880 ca         1 7U4      -0.081000
     15 C26          1.3200     0.0000     0.0000 ca         1 7U4       0.411200
     16 N           -4.4060    -0.2290     7.1890 n          1 7U4      -0.437800
     17 C           -5.3920     1.5820     5.2670 ca         1 7U4       0.174100
     18 O           -4.2150     1.9120     5.8610 os         1 7U4      -0.321900
     19 C1          -6.1480     2.5570     4.6320 ca         1 7U4      -0.219000
     20 O1           1.8940     7.8000     7.4100 o          1 7U4      -0.856300
     21 C2          -7.3430     2.2200     4.0300 ca         1 7U4      -0.084000
     22 O2           1.6930     5.7170     8.1210 o          1 7U4      -0.856300
     23 C3          -7.7870     0.9100     4.0550 ca         1 7U4      -0.179000
     24 O3          -2.5210     0.1930     8.2850 o          1 7U4      -0.608100
     25 C9          -1.8830     4.8400     6.1640 c3         1 7U4      -0.086400
     26 C11         -0.0450     6.4430     6.7060 c3         1 7U4      -0.183400
     27 C12          1.2440     6.6260     7.4640 c          1 7U4       0.890600
     28 C14         -4.5110     0.4500     9.6560 cx         1 7U4      -0.156400
     29 C18         -0.9060     0.1160     6.0110 ca         1 7U4      -0.106500
     30 C19         -2.9510    -0.1130     4.7380 ca         1 7U4      -0.106500
     31 C23         -0.0490     0.0010     2.3550 cp         1 7U4      -0.154300
     32 C25         -0.6940     0.0010     1.1200 ca         1 7U4       0.423200
     33 C27          2.0330     0.0000     1.1860 ca         1 7U4      -0.250300
     34 H3          -7.3880    -1.0870     4.7120 ha         1 7U4       0.127000
     35 H4          -5.6670    -1.6180     6.2640 h1         1 7U4       0.075200
     36 H5          -4.2510    -1.1460     5.3150 h1         1 7U4       0.075200
     37 H7          -3.4580     3.3400     4.5830 h1         1 7U4       0.033700
     38 H6          -4.4810     3.9550     5.8890 h1         1 7U4       0.033700
     39 H8          -1.7420     2.6980     6.2840 hc         1 7U4       0.058200
     40 H9          -2.7510     3.4330     7.5380 hc         1 7U4       0.058200
     41 H13          0.1550     4.3060     6.5850 hc         1 7U4       0.048700
     42 H12         -0.7540     4.8740     7.9920 hc         1 7U4       0.048700
     43 H16         -6.1740    -0.4280     8.4880 h1         1 7U4       0.082700
     44 H19         -4.5790     2.2160     8.3060 hc         1 7U4       0.092450
     45 H20         -6.1580     1.8940     9.2720 hc         1 7U4       0.092450
     46 H23         -2.7280    -0.2020     2.6160 ha         1 7U4       0.134500
     47 H24          0.8990     0.2040     4.8730 ha         1 7U4       0.134500
     48 H25          1.8810     0.0010     3.3310 ha         1 7U4       0.147000
     49 H27          1.8530    -0.0010    -0.9430 h4         1 7U4       0.017100
     50 H           -5.8000     3.5830     4.6090 ha         1 7U4       0.146000
     51 H1          -7.9320     2.9810     3.5310 ha         1 7U4       0.127000
     52 H2          -8.7250     0.6470     3.5820 ha         1 7U4       0.125000
     53 H11         -1.6880     4.9060     5.1000 hc         1 7U4       0.030200
     54 H10         -2.5840     5.6150     6.4510 hc         1 7U4       0.030200
     55 H14          0.1330     6.5950     5.6480 hc         1 7U4       0.027200
     56 H15         -0.7750     7.1620     7.0560 hc         1 7U4       0.027200
     57 H17         -3.4290     0.4620     9.6030 hc         1 7U4       0.092450
     58 H18         -5.0080     0.1400    10.5680 hc         1 7U4       0.092450
     59 H21         -0.3990     0.2040     6.9640 ha         1 7U4       0.175000
     60 H22         -4.0300    -0.2030     4.7040 ha         1 7U4       0.175000
     61 H26         -1.7770     0.0010     1.0800 h4         1 7U4       0.025100
     62 H28          3.1160     0.0000     1.1730 ha         1 7U4       0.138000
     63 C16         -3.0780    -0.0040     7.2230 c          1 7U4       0.701700
@<TRIPOS>BOND
     1    22    27 1   
     2    20    27 1   
     3    27    26 1   
     4    28     9 1   
     5    28     8 1   
     6     9     8 1   
     7    21    19 ar  
     8    21    23 ar  
     9    26     7 1   
    10    19    17 ar  
    11     8    16 1   
    12    25     7 1   
    13    25     6 1   
    14    23     2 ar  
    15     5    18 1   
    16     5     6 1   
    17    17    18 1   
    18    17     3 ar  
    19     2     3 ar  
    20     3     4 1   
    21    16     4 1   
    22    16    63 1   
    23    24    63 2   
    24    63    10 1   
    25    10    29 ar  
    26    10    30 ar  
    27    29    13 ar  
    28    30    11 ar  
    29    13    12 ar  
    30    11    12 ar  
    31    12    31 1   
    32    31    32 ar  
    33    31    14 ar  
    34    32     1 ar  
    35    14    33 ar  
    36     1    15 ar  
    37    33    15 ar  
    38     2    34 1   
    39     4    35 1   
    40     4    36 1   
    41     5    37 1   
    42     5    38 1   
    43     6    39 1   
    44     6    40 1   
    45     7    41 1   
    46     7    42 1   
    47     8    43 1   
    48     9    44 1   
    49     9    45 1   
    50    11    46 1   
    51    13    47 1   
    52    14    48 1   
    53    15    49 1   
    54    19    50 1   
    55    21    51 1   
    56    23    52 1   
    57    25    53 1   
    58    25    54 1   
    59    26    55 1   
    60    26    56 1   
    61    28    57 1   
    62    28    58 1   
    63    29    59 1   
    64    30    60 1   
    65    32    61 1   
    66    33    62 1   
@<TRIPOS>SUBSTRUCTURE
     1 7U4         1 TEMP              0 ****  ****    0 ROOT
