@<TRIPOS>MOLECULE
7U6
   36    38     1     0     0
SMALL
bcc


@<TRIPOS>ATOM
      1 CAI          0.0000     0.0000     0.0000 c3         1 7U6       0.008500
      2 CAG          1.5310     0.0000     0.0000 c3         1 7U6       0.133800
      3 NAL          2.0180     0.0000     1.3860 n7         1 7U6      -0.578200
      4 CAH          1.6110     1.2210     2.0940 c3         1 7U6       0.133800
      5 CAJ          0.0810     1.2700     2.1800 c3         1 7U6       0.008500
      6 NAT         -0.4680     1.1260     0.8230 n          1 7U6      -0.081800
      7 CAO         -1.3750     2.0010     0.3470 c          1 7U6       0.523800
      8 OAC         -1.7250     1.9420    -0.8160 o          1 7U6      -0.648100
      9 CAQ         -1.9480     3.0330     1.2410 cc         1 7U6       0.220800
     10 NAM         -2.7630     4.0560     0.8400 na         1 7U6       0.362700
     11 NAK         -1.7550     3.1010     2.5350 nd         1 7U6      -0.507100
     12 CAS         -2.4160     4.1550     3.0370 ca         1 7U6       0.137400
     13 CAR         -3.0740     4.7870     1.9650 ca         1 7U6      -0.303200
     14 CAF         -3.8440     5.9220     2.1940 ca         1 7U6       0.041000
     15 CAD         -3.9660     6.4310     3.4700 ca         1 7U6      -0.110000
     16 CAE         -3.3260     5.8230     4.5380 ca         1 7U6      -0.052000
     17 CAP         -2.5530     4.6850     4.3400 ca         1 7U6      -0.193600
     18 CAN         -1.8730     4.0410     5.4800 c          1 7U6       0.342700
     19 OAB         -1.1970     3.0460     5.3010 o          1 7U6      -0.408100
     20 NAA         -2.0010     4.5550     6.7190 nz         1 7U6       0.197600
     21 H1          -0.3630     0.1160    -1.0140 h1         1 7U6       0.054950
     22 H2          -0.3630    -0.9310     0.4180 h1         1 7U6       0.054950
     23 H3           1.8920     0.8860    -0.5080 h1         1 7U6       0.015700
     24 H4           1.8920    -0.8860    -0.5080 h1         1 7U6       0.015700
     25 H5           3.0160    -0.0700     1.3890 hn         1 7U6       0.263800
     26 H7           1.9700     2.0880     1.5530 h1         1 7U6       0.015700
     27 H8           2.0280     1.2130     3.0940 h1         1 7U6       0.015700
     28 H9          -0.2290     2.2210     2.5980 h1         1 7U6       0.054950
     29 H10         -0.2750     0.4590     2.8040 h1         1 7U6       0.054950
     30 H11         -3.1940     4.1470    -0.0580 hn         1 7U6       0.160700
     31 H13         -4.3500     6.4070     1.3680 ha         1 7U6       0.122000
     32 H14         -4.5660     7.3170     3.6380 ha         1 7U6       0.132000
     33 H15         -3.4320     6.2360     5.5340 ha         1 7U6       0.080000
     34 H16         -1.6530     5.4930     6.7280 hn         1 7U6       0.244133
     35 H17         -2.9670     4.5550     6.9820 hn         1 7U6       0.244133
     36 HAA3        -1.4790     3.9990     7.3670 hn         1 7U6       0.244133
@<TRIPOS>BOND
     1     1     2 1   
     2     1     6 1   
     3     1    21 1   
     4     1    22 1   
     5     2     3 1   
     6     2    23 1   
     7     2    24 1   
     8     3     4 1   
     9     3    25 1   
    10     4     5 1   
    11     4    26 1   
    12     4    27 1   
    13     5     6 1   
    14     5    28 1   
    15     5    29 1   
    16     6     7 1   
    17     7     8 2   
    18     7     9 1   
    19     9    10 1   
    20     9    11 2   
    21    10    13 1   
    22    10    30 1   
    23    11    12 1   
    24    12    13 ar  
    25    12    17 ar  
    26    13    14 ar  
    27    14    15 ar  
    28    14    31 1   
    29    15    16 ar  
    30    15    32 1   
    31    16    17 ar  
    32    16    33 1   
    33    17    18 1   
    34    18    19 2   
    35    18    20 1   
    36    20    34 1   
    37    20    35 1   
    38    20    36 1   
@<TRIPOS>SUBSTRUCTURE
     1 7U6         1 TEMP              0 ****  ****    0 ROOT
