@<TRIPOS>MOLECULE
molecule
   37    39     1     0     0
SMALL
bcc


@<TRIPOS>ATOM
      1 CAJ          0.0000     0.0000     0.0000 c3         1 7U9       0.103000
      2 CAS          1.5430     0.0000     0.0000 c3         1 7U9       0.072500
      3 NAB          2.0640    -1.2090    -0.6540 nz         1 7U9      -0.804600
      4 CAH          1.8910     0.0000     1.5120 c3         1 7U9      -0.118400
      5 CAI          0.7560     0.8810     2.0920 c3         1 7U9       0.101000
      6 NAT         -0.4400     0.5260     1.2990 n          1 7U9      -0.485800
      7 CAN         -1.7190     0.6680     1.7010 c          1 7U9       0.642800
      8 OAD         -2.6270     0.3440     0.9630 o          1 7U9      -0.547100
      9 CAP         -2.0160     1.2200     3.0430 cc         1 7U9       0.419800
     10 NAL         -3.2700     1.4080     3.5560 na         1 7U9      -0.194300
     11 NAK         -1.1180     1.5960     3.9200 nd         1 7U9      -0.606100
     12 CAR         -1.7260     2.0450     5.0280 ca         1 7U9       0.158400
     13 CAQ         -3.1140     1.9350     4.8190 ca         1 7U9      -0.087200
     14 CAG         -4.0010     2.3320     5.8120 ca         1 7U9      -0.026000
     15 CAE         -3.5240     2.8370     7.0050 ca         1 7U9      -0.136000
     16 CAF         -2.1630     2.9540     7.2300 ca         1 7U9      -0.116000
     17 CAO         -1.2520     2.5600     6.2560 ca         1 7U9      -0.149600
     18 CAM          0.1970     2.6850     6.4990 c          1 7U9       0.513700
     19 OAC          0.9890     2.3390     5.6440 o          1 7U9      -0.422100
     20 NAA          0.6430     3.1830     7.6700 nz         1 7U9      -0.678400
     21 H1          -0.3670    -1.0110    -0.1290 h1         1 7U9       0.082700
     22 H2          -0.3670     0.6360    -0.7970 h1         1 7U9       0.082700
     23 H3           1.9240     0.8950    -0.4770 hx         1 7U9       0.136700
     24 H4           1.7460    -1.2380    -1.6020 hn         1 7U9       0.463133
     25 H5           1.7360    -2.0190    -0.1660 hn         1 7U9       0.463133
     26 H7           2.8590     0.4550     1.6850 hc         1 7U9       0.085700
     27 H8           1.8460    -1.0030     1.9180 hc         1 7U9       0.085700
     28 H9           0.5970     0.6470     3.1380 h1         1 7U9       0.097200
     29 H10          0.9930     1.9300     1.9660 h1         1 7U9       0.097200
     30 H11         -4.1300     1.3420     3.0470 hn         1 7U9       0.350700
     31 H13         -5.0780     2.2780     5.7050 ha         1 7U9       0.172000
     32 H14         -4.2750     3.1290     7.7290 ha         1 7U9       0.177000
     33 H15         -2.1360     3.3630     8.2330 ha         1 7U9       0.164000
     34 H16          1.6440     3.1990     7.6660 hn         1 7U9       0.479467
     35 H17          0.3220     2.6060     8.4220 hn         1 7U9       0.479467
     36 HAB3         3.0640    -1.1970    -0.6290 hn         1 7U9       0.463133
     37 HAA3         0.2940     4.1130     7.7910 hn         1 7U9       0.479467
@<TRIPOS>BOND
     1    19    18 2   
     2    20    18 1   
     3    18    17 1   
     4    17    16 ar  
     5    17    12 ar  
     6    16    15 ar  
     7     4     5 1   
     8     4     2 1   
     9     5     6 1   
    10    12    11 1   
    11    12    13 ar  
    12    11     9 2   
    13    15    14 ar  
    14     2     3 1   
    15     2     1 1   
    16     6     7 1   
    17     6     1 1   
    18    13    14 ar  
    19    13    10 1   
    20     9     7 1   
    21     9    10 1   
    22     7     8 2   
    23     1    21 1   
    24     1    22 1   
    25     2    23 1   
    26     3    24 1   
    27     3    25 1   
    28     4    26 1   
    29     4    27 1   
    30     5    28 1   
    31     5    29 1   
    32    10    30 1   
    33    14    31 1   
    34    15    32 1   
    35    16    33 1   
    36    20    34 1   
    37    20    35 1   
    38    36     3 1   
    39    37    20 1   
@<TRIPOS>SUBSTRUCTURE
     1 7U9         1 TEMP              0 ****  ****    0 ROOT
