@<TRIPOS>MOLECULE
7U9
   37    39     1     0     0
SMALL
bcc


@<TRIPOS>ATOM
      1 CAJ          0.0000     0.0000     0.0000 c3         1 7U9       0.072000
      2 CAS          1.5430     0.0000     0.0000 c3         1 7U9      -0.106500
      3 NAB          2.0640    -1.2090    -0.6540 nz         1 7U9       0.092400
      4 CAH          1.8910     0.0000     1.5120 c3         1 7U9      -0.033400
      5 CAI          0.7560     0.8810     2.0920 c3         1 7U9       0.040000
      6 NAT         -0.4400     0.5260     1.2990 n          1 7U9      -0.143800
      7 CAN         -1.7190     0.6680     1.7010 c          1 7U9       0.571800
      8 OAD         -2.6270     0.3440     0.9630 o          1 7U9      -0.604100
      9 CAP         -2.0160     1.2200     3.0430 cc         1 7U9       0.183800
     10 NAL         -3.2700     1.4080     3.5560 na         1 7U9       0.383700
     11 NAK         -1.1180     1.5960     3.9200 nd         1 7U9      -0.522100
     12 CAR         -1.7260     2.0450     5.0280 ca         1 7U9       0.136400
     13 CAQ         -3.1140     1.9350     4.8190 ca         1 7U9      -0.290200
     14 CAG         -4.0010     2.3320     5.8120 ca         1 7U9       0.039000
     15 CAE         -3.5240     2.8370     7.0050 ca         1 7U9      -0.120000
     16 CAF         -2.1630     2.9540     7.2300 ca         1 7U9      -0.082000
     17 CAO         -1.2520     2.5600     6.2560 ca         1 7U9      -0.164600
     18 CAM          0.1970     2.6850     6.4990 c          1 7U9       0.359700
     19 OAC          0.9890     2.3390     5.6440 o          1 7U9      -0.437100
     20 NAA          0.6430     3.1830     7.6700 nz         1 7U9       0.201600
     21 H1          -0.3670    -1.0110    -0.1290 h1         1 7U9       0.044700
     22 H2          -0.3670     0.6360    -0.7970 h1         1 7U9       0.044700
     23 H3           1.9240     0.8950    -0.4770 hx         1 7U9       0.108700
     24 H4           1.7460    -1.2380    -1.6020 hn         1 7U9       0.229467
     25 H5           1.7360    -2.0190    -0.1660 hn         1 7U9       0.229467
     26 H7           2.8590     0.4550     1.6850 hc         1 7U9       0.048700
     27 H8           1.8460    -1.0030     1.9180 hc         1 7U9       0.048700
     28 H9           0.5970     0.6470     3.1380 h1         1 7U9       0.065200
     29 H10          0.9930     1.9300     1.9660 h1         1 7U9       0.065200
     30 H11         -4.1300     1.3420     3.0470 hn         1 7U9       0.161700
     31 H13         -5.0780     2.2780     5.7050 ha         1 7U9       0.130000
     32 H14         -4.2750     3.1290     7.7290 ha         1 7U9       0.142000
     33 H15         -2.1360     3.3630     8.2330 ha         1 7U9       0.133000
     34 H16          1.6440     3.1990     7.6660 hn         1 7U9       0.247467
     35 H17          0.3220     2.6060     8.4220 hn         1 7U9       0.247467
     36 HAB3         3.0640    -1.1970    -0.6290 hn         1 7U9       0.229467
     37 HAA3         0.2940     4.1130     7.7910 hn         1 7U9       0.247467
@<TRIPOS>BOND
     1     1     2 1   
     2     1     6 1   
     3     1    21 1   
     4     1    22 1   
     5     2     3 1   
     6     2     4 1   
     7     2    23 1   
     8     3    24 1   
     9     3    25 1   
    10     3    36 1   
    11     4     5 1   
    12     4    26 1   
    13     4    27 1   
    14     5     6 1   
    15     5    28 1   
    16     5    29 1   
    17     6     7 1   
    18     7     8 2   
    19     7     9 1   
    20     9    10 1   
    21     9    11 2   
    22    10    13 1   
    23    10    30 1   
    24    11    12 1   
    25    12    13 ar  
    26    12    17 ar  
    27    13    14 ar  
    28    14    15 ar  
    29    14    31 1   
    30    15    16 ar  
    31    15    32 1   
    32    16    17 ar  
    33    16    33 1   
    34    17    18 1   
    35    18    19 2   
    36    18    20 1   
    37    20    34 1   
    38    20    35 1   
    39    20    37 1   
@<TRIPOS>SUBSTRUCTURE
     1 7U9         1 TEMP              0 ****  ****    0 ROOT
