@<TRIPOS>MOLECULE
7UC
   20    19     1     0     0
SMALL
bcc


@<TRIPOS>ATOM
      1 OAC          0.0000     0.0000     0.0000 o          1 7UC      -0.907300
      2 CAJ          1.3420     0.0000     0.0000 c          1 7UC       0.985600
      3 OAE          1.9460     0.0000     1.0460 o          1 7UC      -0.907300
      4 CAG          2.0940     0.0020    -1.3060 c3         1 7UC      -0.127400
      5 CAK          3.5990     0.0020    -1.0270 c3         1 7UC       0.120500
      6 CAA          4.3630    -0.1220    -2.3470 c3         1 7UC      -0.045100
      7 N            3.9730     1.2570    -0.3610 n7         1 7UC      -0.506200
      8 CA           5.1960     1.0860     0.4350 c3         1 7UC       0.032800
      9 C            5.5480     2.3910     1.1010 c          1 7UC       0.987600
     10 OXT          6.6350     2.4730     1.8850 o          1 7UC      -0.918800
     11 O            4.8510     3.3640     0.9300 o          1 7UC      -0.918800
     12 H2           1.8320     0.8860    -1.8730 hc         1 7UC      -0.005300
     13 H3           1.8330    -0.8830    -1.8750 hc         1 7UC      -0.005300
     14 H4           3.8480    -0.8350    -0.3860 h1         1 7UC       0.035700
     15 H5           4.0080    -0.9900    -2.8890 hc         1 7UC      -0.013967
     16 H6           5.4210    -0.2310    -2.1430 hc         1 7UC      -0.013967
     17 H7           4.2000     0.7680    -2.9430 hc         1 7UC      -0.013967
     18 H8           4.1190     1.9690    -1.0490 hn         1 7UC       0.234800
     19 H10          5.0320     0.3280     1.1910 h1         1 7UC      -0.006300
     20 H11          6.0090     0.7810    -0.2130 h1         1 7UC      -0.006300
@<TRIPOS>BOND
     1     1     2 1   
     2     2     3 1   
     3     2     4 1   
     4     4     5 1   
     5     4    12 1   
     6     4    13 1   
     7     5     6 1   
     8     5     7 1   
     9     5    14 1   
    10     6    15 1   
    11     6    16 1   
    12     6    17 1   
    13     7     8 1   
    14     7    18 1   
    15     8     9 1   
    16     8    19 1   
    17     8    20 1   
    18     9    10 1   
    19     9    11 1   
@<TRIPOS>SUBSTRUCTURE
     1 7UC         1 TEMP              0 ****  ****    0 ROOT
