@<TRIPOS>MOLECULE
molecule
   20    19     1     0     0
SMALL
bcc


@<TRIPOS>ATOM
      1 OAC          0.0000     0.0000     0.0000 o          1 7UC      -0.858800
      2 CAJ          1.3420     0.0000     0.0000 c          1 7UC       0.899600
      3 OAE          1.9460     0.0000     1.0460 o          1 7UC      -0.858800
      4 CAG          2.0940     0.0020    -1.3060 c3         1 7UC      -0.169400
      5 CAK          3.5990     0.0020    -1.0270 c3         1 7UC       0.177500
      6 CAA          4.3630    -0.1220    -2.3470 c3         1 7UC      -0.135100
      7 N            3.9730     1.2570    -0.3610 n7         1 7UC      -0.746200
      8 CA           5.1960     1.0860     0.4350 c3         1 7UC       0.059800
      9 C            5.5480     2.3910     1.1010 c          1 7UC       0.897600
     10 OXT          6.6350     2.4730     1.8850 o          1 7UC      -0.869300
     11 O            4.8510     3.3640     0.9300 o          1 7UC      -0.869300
     12 H2           1.8320     0.8860    -1.8730 hc         1 7UC       0.014700
     13 H3           1.8330    -0.8830    -1.8750 hc         1 7UC       0.014700
     14 H4           3.8480    -0.8350    -0.3860 h1         1 7UC       0.056700
     15 H5           4.0080    -0.9900    -2.8890 hc         1 7UC       0.010033
     16 H6           5.4210    -0.2310    -2.1430 hc         1 7UC       0.010033
     17 H7           4.2000     0.7680    -2.9430 hc         1 7UC       0.010033
     18 H8           4.1190     1.9690    -1.0490 hn         1 7UC       0.333800
     19 H10          5.0320     0.3280     1.1910 h1         1 7UC       0.011700
     20 H11          6.0090     0.7810    -0.2130 h1         1 7UC       0.011700
@<TRIPOS>BOND
     1     6     5 1   
     2     8     7 1   
     3     8     9 1   
     4     7     5 1   
     5     5     4 1   
     6    11     9 1   
     7     9    10 1   
     8     4     2 1   
     9     2     3 1   
    10     2     1 1   
    11     4    12 1   
    12     4    13 1   
    13     5    14 1   
    14     6    15 1   
    15     6    16 1   
    16     6    17 1   
    17     7    18 1   
    18     8    19 1   
    19     8    20 1   
@<TRIPOS>SUBSTRUCTURE
     1 7UC         1 TEMP              0 ****  ****    0 ROOT
