@<TRIPOS>MOLECULE
molecule
   67    70     1     0     0
SMALL
bcc


@<TRIPOS>ATOM
      1 C4           0.0000     0.0000     0.0000 ca         1 7UG      -0.080000
      2 C5           1.3820     0.0000     0.0000 ca         1 7UG      -0.158300
      3 C6           2.1350    -0.0000    -1.3040 c3         1 7UG       0.173300
      4 C7           4.0780     0.0110     2.4800 c3         1 7UG       0.132400
      5 C8           5.5950     0.0080     2.2830 c3         1 7UG      -0.077400
      6 C10          7.8040     0.0190     3.4500 c3         1 7UG      -0.060400
      7 C13          1.7310    -2.2610    -2.3840 c3         1 7UG       0.132300
      8 C15          4.2060    -3.1820    -1.3950 ca         1 7UG      -0.136600
      9 C17          3.3130    -4.2270    -1.1440 ca         1 7UG      -0.096000
     10 C20          5.8840    -4.7620    -2.0590 ca         1 7UG      -0.128500
     11 C21          0.3780    -2.3590    -1.7280 ca         1 7UG      -0.105300
     12 C22          5.4110    -7.2070    -2.0260 cc         1 7UG      -0.070000
     13 C24         -1.9940    -2.0450    -1.8110 ca         1 7UG      -0.126500
     14 C26         -0.9720    -2.9300     0.1650 ca         1 7UG      -0.126500
     15 C28          4.5690    -8.2960    -1.7890 cc         1 7UG      -0.139000
     16 O3           4.5320    -1.0140    -0.5920 o          1 7UG      -0.553100
     17 C14          3.7900    -1.7840    -1.1710 c          1 7UG       0.661700
     18 C18          3.7020    -5.5260    -1.3480 ca         1 7UG      -0.128500
     19 C19          4.9900    -5.8050    -1.8070 ca         1 7UG      -0.002000
     20 C29          6.6370    -7.5420    -2.4660 cd         1 7UG      -0.092100
     21 S            6.7840    -9.2370    -2.5990 ss         1 7UG      -0.118800
     22 C30          5.1340    -9.4760    -2.0420 cd         1 7UG      -0.091100
     23 C16          5.4970    -3.4620    -1.8550 ca         1 7UG      -0.096000
     24 N            2.5870    -1.3610    -1.6070 n          1 7UG      -0.484800
     25 C27          0.2690    -2.8460    -0.4390 ca         1 7UG      -0.116500
     26 C25         -2.1040    -2.5390    -0.5240 ca         1 7UG      -0.130000
     27 C23         -0.7530    -1.9550    -2.4120 ca         1 7UG      -0.116500
     28 C3          -0.6940     0.0070     1.1960 ca         1 7UG      -0.187000
     29 C2          -0.0060     0.0120     2.3960 ca         1 7UG      -0.088000
     30 C1           1.3760     0.0130     2.4010 ca         1 7UG      -0.232000
     31 C            2.0730     0.0000     1.2030 ca         1 7UG       0.170100
     32 O            3.4310    -0.0010     1.2060 os         1 7UG      -0.293900
     33 C9           6.2870     0.0210     3.6480 c3         1 7UG      -0.088400
     34 C11          8.4950     0.0320     4.8150 c3         1 7UG      -0.184400
     35 C12          9.9910     0.0280     4.6210 c          1 7UG       0.891600
     36 O1          10.4540     0.0180     3.5060 o          1 7UG      -0.857300
     37 O2          10.8060     0.0380     5.6880 o          1 7UG      -0.857300
     38 H3          -0.5410    -0.0040    -0.9390 ha         1 7UG       0.132000
     39 H5           1.4840     0.3490    -2.0970 h1         1 7UG       0.066200
     40 H4           2.9930     0.6560    -1.2260 h1         1 7UG       0.066200
     41 H6           3.7860     0.9000     3.0250 h1         1 7UG       0.026200
     42 H7           3.7860    -0.8690     3.0420 h1         1 7UG       0.026200
     43 H9           5.8870    -0.8810     1.7380 hc         1 7UG       0.060700
     44 H8           5.8880     0.8880     1.7220 hc         1 7UG       0.060700
     45 H12          8.0970     0.8980     2.8890 hc         1 7UG       0.048200
     46 H13          8.0960    -0.8710     2.9060 hc         1 7UG       0.048200
     47 H16          1.6180    -1.8730    -3.3890 h1         1 7UG       0.062200
     48 H17          2.1840    -3.2440    -2.4250 h1         1 7UG       0.062200
     49 H19          2.3130    -4.0120    -0.7880 ha         1 7UG       0.149500
     50 H21          6.8840    -4.9800    -2.4150 ha         1 7UG       0.133000
     51 H23         -2.8810    -1.7330    -2.3500 ha         1 7UG       0.128500
     52 H25         -1.0580    -3.3140     1.1740 ha         1 7UG       0.128500
     53 H27          3.5510    -8.1910    -1.4330 ha         1 7UG       0.151000
     54 H20          3.0100    -6.3350    -1.1530 ha         1 7UG       0.133000
     55 H28          7.4230    -6.8350    -2.7030 h4         1 7UG       0.178000
     56 H29          4.6500   -10.4380    -1.9220 h4         1 7UG       0.167000
     57 H18          6.1900    -2.6530    -2.0510 ha         1 7UG       0.149500
     58 H26          1.1560    -3.1520     0.1020 ha         1 7UG       0.135500
     59 H24         -3.0770    -2.6070    -0.0520 ha         1 7UG       0.125000
     60 H22         -0.6670    -1.5680    -3.4210 ha         1 7UG       0.135500
     61 H2          -1.7770     0.0070     1.1930 ha         1 7UG       0.121000
     62 H1          -0.5510     0.0200     3.3320 ha         1 7UG       0.121000
     63 H            1.9150     0.0150     3.3410 ha         1 7UG       0.142000
     64 H11          5.9950    -0.8580     4.2090 hc         1 7UG       0.027200
     65 H10          5.9950     0.9110     4.1930 hc         1 7UG       0.027200
     66 H14          8.2020    -0.8470     5.3770 hc         1 7UG       0.025700
     67 H15          8.2040     0.9220     5.3590 hc         1 7UG       0.025700
@<TRIPOS>BOND
     1    14    26 ar
     2    14    25 ar
     3    26    13 ar
     4    25    11 ar
     5    13    27 ar
     6    36    35 1
     7    11    27 ar
     8    11     7 1
     9    37    35 1
    10    35    34 1
    11     7    24 1
    12    29    28 ar
    13    29    30 ar
    14    28     1 ar
    15    30    31 ar
    16    34     6 1
    17     1     2 ar
    18    31     2 ar
    19    31    32 1
    20    33     6 1
    21    33     5 1
    22    24     3 1
    23    24    17 1
    24     2     3 1
    25     4    32 1
    26     4     5 1
    27    16    17 2
    28    17     8 1
    29     8    23 ar
    30     8     9 ar
    31    23    10 ar
    32     9    18 ar
    33    10    19 ar
    34    18    19 ar
    35    19    12 1
    36    12    20 2
    37    12    15 1
    38    20    21 1
    39    15    22 2
    40    22    21 1
    41     1    38 1
    42     3    39 1
    43     3    40 1
    44     4    41 1
    45     4    42 1
    46     5    43 1
    47     5    44 1
    48     6    45 1
    49     6    46 1
    50     7    47 1
    51     7    48 1
    52     9    49 1
    53    10    50 1
    54    13    51 1
    55    14    52 1
    56    15    53 1
    57    18    54 1
    58    20    55 1
    59    22    56 1
    60    23    57 1
    61    25    58 1
    62    26    59 1
    63    27    60 1
    64    28    61 1
    65    29    62 1
    66    30    63 1
    67    33    64 1
    68    33    65 1
    69    34    66 1
    70    34    67 1
@<TRIPOS>SUBSTRUCTURE
     1 7UG         1 TEMP              0 ****  ****    0 ROOT
