@<TRIPOS>MOLECULE
7UJ
   66    68     1     0     0
SMALL
bcc


@<TRIPOS>ATOM
      1 C4           0.0000     0.0000     0.0000 ca         1 7UJ      -0.062000
      2 C5           1.3810     0.0000     0.0000 ca         1 7UJ      -0.171300
      3 C6           2.1350    -0.0010    -1.3040 c3         1 7UJ       0.116300
      4 C7           4.0790     0.0000     2.4800 c3         1 7UJ       0.192400
      5 C8           5.5960    -0.0020     2.2820 c3         1 7UJ      -0.036400
      6 C10          7.8050    -0.0020     3.4490 c3         1 7UJ      -0.014400
      7 C13          1.8060    -2.3640    -2.1690 c3         1 7UJ      -0.026300
      8 C15          1.1900    -1.8140    -3.4560 c3         1 7UJ      -0.025600
      9 C17          4.4980    -2.9630    -1.5770 ca         1 7UJ      -0.137600
     10 C20          6.3120    -4.3010    -2.4070 ca         1 7UJ      -0.108000
     11 C21          5.5510    -5.4520    -2.1980 cp         1 7UJ      -0.020000
     12 C22          4.2610    -5.3520    -1.6770 ca         1 7UJ      -0.108000
     13 C24          5.3570    -7.9340    -2.3230 ca         1 7UJ      -0.097500
     14 C26          7.9220    -8.1270    -3.3590 ca         1 7UJ      -0.100000
     15 C28          5.8860    -9.1700    -2.6340 ca         1 7UJ      -0.100000
     16 O3           4.6290    -0.8130    -0.6750 o          1 7UJ      -0.602100
     17 C16          3.9390    -1.6380    -1.2410 c          1 7UJ       0.595700
     18 C19          5.7900    -3.0650    -2.0990 ca         1 7UJ      -0.072500
     19 C23          6.1150    -6.7830    -2.5310 cp         1 7UJ      -0.028000
     20 C25          7.4030    -6.8860    -3.0520 ca         1 7UJ      -0.097500
     21 C27          7.1670    -9.2670    -3.1470 ca         1 7UJ      -0.105000
     22 C18          3.7370    -4.1160    -1.3680 ca         1 7UJ      -0.072500
     23 N            2.6640    -1.3430    -1.5620 n          1 7UJ      -0.140800
     24 C14          0.6920    -2.7420    -1.1900 c3         1 7UJ      -0.025600
     25 C3          -0.6940     0.0070     1.1980 ca         1 7UJ      -0.168000
     26 C2          -0.0050     0.0130     2.3970 ca         1 7UJ      -0.054000
     27 C1           1.3770     0.0130     2.4020 ca         1 7UJ      -0.218000
     28 C            2.0730     0.0000     1.2030 ca         1 7UJ       0.181100
     29 O            3.4330    -0.0010     1.2060 os         1 7UJ      -0.264900
     30 C9           6.2880    -0.0020     3.6470 c3         1 7UJ      -0.033400
     31 C11          8.4970    -0.0020     4.8130 c3         1 7UJ      -0.134400
     32 C12          9.9910    -0.0030     4.6190 c          1 7UJ       0.979600
     33 O1          10.4560    -0.0050     3.5030 o          1 7UJ      -0.906800
     34 O2          10.8070    -0.0030     5.6850 o          1 7UJ      -0.906800
     35 H3          -0.5410     0.0460    -0.9380 ha         1 7UJ       0.100000
     36 H4           2.9540     0.7050    -1.2480 h1         1 7UJ       0.039200
     37 H5           1.4660     0.2830    -2.1080 h1         1 7UJ       0.039200
     38 H7           3.7850    -0.8830     3.0340 h1         1 7UJ      -0.004800
     39 H6           3.7880     0.8860     3.0310 h1         1 7UJ      -0.004800
     40 H8           5.8870    -0.8870     1.7300 hc         1 7UJ       0.032700
     41 H9           5.8890     0.8820     1.7280 hc         1 7UJ       0.032700
     42 H13          8.0980     0.8820     2.8950 hc         1 7UJ       0.023200
     43 H12          8.0970    -0.8870     2.8960 hc         1 7UJ       0.023200
     44 H16          2.3820    -3.2530    -2.3960 h1         1 7UJ       0.076700
     45 H20          0.3000    -1.2460    -3.2160 hc         1 7UJ       0.013367
     46 H21          1.9060    -1.1710    -3.9530 hc         1 7UJ       0.013367
     47 H22          0.9280    -2.6370    -4.1110 hc         1 7UJ       0.013367
     48 H25          7.3140    -4.3810    -2.8120 ha         1 7UJ       0.113000
     49 H26          3.6710    -6.2460    -1.5150 ha         1 7UJ       0.113000
     50 H31          5.3000   -10.0660    -2.4720 ha         1 7UJ       0.100500
     51 H24          6.3810    -2.1720    -2.2620 ha         1 7UJ       0.125000
     52 H28          7.9950    -5.9940    -3.2190 ha         1 7UJ       0.113000
     53 H30          7.5790   -10.2390    -3.3900 ha         1 7UJ       0.098000
     54 H23          2.7350    -4.0380    -0.9630 ha         1 7UJ       0.125000
     55 H18          0.3770    -3.7610    -1.3770 hc         1 7UJ       0.013367
     56 H17         -0.1500    -2.0740    -1.3260 hc         1 7UJ       0.013367
     57 H19          1.0590    -2.6580    -0.1740 hc         1 7UJ       0.013367
     58 H2          -1.7770     0.0230     1.1960 ha         1 7UJ       0.099000
     59 H1          -0.5490     0.0200     3.3340 ha         1 7UJ       0.095000
     60 H            1.9150     0.0660     3.3400 ha         1 7UJ       0.129000
     61 H10          5.9950    -0.8860     4.2000 hc         1 7UJ       0.001700
     62 H11          5.9960     0.8830     4.1990 hc         1 7UJ       0.001700
     63 H14          8.2050     0.8830     5.3660 hc         1 7UJ       0.002700
     64 H15          8.2050    -0.8860     5.3670 hc         1 7UJ       0.002700
     65 H27          4.3540    -7.8590    -1.9210 ha         1 7UJ       0.113000
     66 H29          8.9240    -8.2100    -3.7620 ha         1 7UJ       0.100500
@<TRIPOS>BOND
     1     1     2 ar  
     2     1    25 ar  
     3     1    35 1   
     4     2     3 1   
     5     2    28 ar  
     6     3    23 1   
     7     3    36 1   
     8     3    37 1   
     9     4     5 1   
    10     4    29 1   
    11     4    38 1   
    12     4    39 1   
    13     5    30 1   
    14     5    40 1   
    15     5    41 1   
    16     6    30 1   
    17     6    31 1   
    18     6    42 1   
    19     6    43 1   
    20     7     8 1   
    21     7    23 1   
    22     7    24 1   
    23     7    44 1   
    24     8    45 1   
    25     8    46 1   
    26     8    47 1   
    27     9    17 1   
    28     9    18 ar  
    29     9    22 ar  
    30    10    11 ar  
    31    10    18 ar  
    32    10    48 1   
    33    11    12 ar  
    34    11    19 1   
    35    12    22 ar  
    36    12    49 1   
    37    13    15 ar  
    38    13    19 ar  
    39    13    65 1   
    40    14    20 ar  
    41    14    21 ar  
    42    14    66 1   
    43    15    21 ar  
    44    15    50 1   
    45    16    17 2   
    46    17    23 1   
    47    18    51 1   
    48    19    20 ar  
    49    20    52 1   
    50    21    53 1   
    51    22    54 1   
    52    24    55 1   
    53    24    56 1   
    54    24    57 1   
    55    25    26 ar  
    56    25    58 1   
    57    26    27 ar  
    58    26    59 1   
    59    27    28 ar  
    60    27    60 1   
    61    28    29 1   
    62    30    61 1   
    63    30    62 1   
    64    31    32 1   
    65    31    63 1   
    66    31    64 1   
    67    32    33 1   
    68    32    34 1   
@<TRIPOS>SUBSTRUCTURE
     1 7UJ         1 TEMP              0 ****  ****    0 ROOT
