@<TRIPOS>MOLECULE
7UL
   53    56     1     0     0
SMALL
bcc


@<TRIPOS>ATOM
      1 OAC          0.0000     0.0000     0.0000 o          1 7UL      -0.716500
      2 CBA          1.2160     0.0000     0.0000 c          1 7UL       0.599500
      3 NAU          1.8590     0.0000     1.1780 ns         1 7UL      -0.132500
      4 CAZ          3.2080    -0.0010     1.2400 c          1 7UL       0.631100
      5 OAB          3.7820     0.0000     2.3130 o          1 7UL      -0.642500
      6 CBB          3.9660    -0.0020    -0.0230 ca         1 7UL      -0.218600
      7 CAL          5.3580    -0.0020    -0.0420 ca         1 7UL       0.016000
      8 CAH          6.0210    -0.0030    -1.2530 ca         1 7UL      -0.144000
      9 CAI          5.3090    -0.0020    -2.4420 ca         1 7UL      -0.028000
     10 CAM          3.9280    -0.0030    -2.4370 ca         1 7UL      -0.183000
     11 CBC          3.2450    -0.0030    -1.2310 ca         1 7UL      -0.042400
     12 NBF          1.8580    -0.0060    -1.1810 n          1 7UL       0.048000
     13 CAS          1.0880    -0.0130    -2.4270 c3         1 7UL       0.092300
     14 CAW          0.7360     1.4030    -2.8070 ca         1 7UL      -0.154300
     15 CAN          1.5400     2.0980    -3.6840 ca         1 7UL      -0.053000
     16 CAJ         -0.3960     1.9970    -2.2770 ca         1 7UL      -0.032000
     17 CAK         -0.7280     3.2950    -2.6190 ca         1 7UL      -0.143000
     18 CAX          0.0710     4.0080    -3.4940 ca         1 7UL       0.170900
     19 FAD         -0.2530     5.2760    -3.8280 f          1 7UL      -0.114900
     20 CAY          1.2130     3.4100    -4.0360 ca         1 7UL      -0.183600
     21 CAV          2.0700     4.1610    -4.9760 c          1 7UL       0.615700
     22 OAA          1.5790     4.6960    -5.9510 o          1 7UL      -0.626100
     23 NBE          3.3950     4.2540    -4.7530 n          1 7UL      -0.155800
     24 CAR          3.9960     3.6950    -3.5320 c3         1 7UL       0.046000
     25 CAP          4.8590     4.7780    -2.8740 c3         1 7UL       0.122300
     26 CAQ          4.2820     4.9110    -5.7260 c3         1 7UL       0.046000
     27 CAO          5.1330     5.9480    -4.9870 c3         1 7UL       0.122300
     28 NBD          5.8180     5.2990    -3.8560 n3         1 7UL      -0.527600
     29 CAT          6.7770     6.2140    -3.2220 c3         1 7UL       0.090800
     30 CBG          7.8400     5.4040    -2.4790 c3         1 7UL       0.573900
     31 FAF          7.2220     4.5730    -1.5380 f          1 7UL      -0.205633
     32 FAG          8.5550     4.6230    -3.3930 f          1 7UL      -0.205633
     33 FAE          8.7170     6.2760    -1.8250 f          1 7UL      -0.205633
     34 H1           1.3280     0.0010     2.0270 hn         1 7UL       0.208500
     35 H2           5.9160    -0.0020     0.8860 ha         1 7UL       0.129000
     36 H3           7.1040    -0.0030    -1.2740 ha         1 7UL       0.116000
     37 H4           5.8420    -0.0030    -3.3860 ha         1 7UL       0.107000
     38 H5           3.3800    -0.0020    -3.3720 ha         1 7UL       0.126000
     39 H6           1.6800    -0.4610    -3.2160 h1         1 7UL       0.050700
     40 H7           0.1790    -0.5860    -2.2870 h1         1 7UL       0.050700
     41 H8           2.4230     1.6290    -4.1000 ha         1 7UL       0.117000
     42 H9          -1.0250     1.4430    -1.5910 ha         1 7UL       0.141000
     43 H10         -1.6150     3.7550    -2.2000 ha         1 7UL       0.127000
     44 H11          3.2120     3.3900    -2.8480 h1         1 7UL       0.039950
     45 H12          4.6150     2.8430    -3.7880 h1         1 7UL       0.039950
     46 H13          4.2230     5.5840    -2.5280 h1         1 7UL       0.027950
     47 H14          5.3970     4.3500    -2.0370 h1         1 7UL       0.027950
     48 H15          4.9270     4.1720    -6.1850 h1         1 7UL       0.039950
     49 H16          3.6860     5.4030    -6.4850 h1         1 7UL       0.039950
     50 H17          5.8690     6.3600    -5.6660 h1         1 7UL       0.027950
     51 H18          4.4930     6.7400    -4.6150 h1         1 7UL       0.027950
     52 H20          7.2520     6.8230    -3.9820 h1         1 7UL       0.047200
     53 H21          6.2550     6.8550    -2.5210 h1         1 7UL       0.047200
@<TRIPOS>BOND
     1     1     2 2   
     2     2     3 1   
     3     2    12 1   
     4     3     4 1   
     5     3    34 1   
     6     4     5 2   
     7     4     6 1   
     8     6     7 ar  
     9     6    11 ar  
    10     7     8 ar  
    11     7    35 1   
    12     8     9 ar  
    13     8    36 1   
    14     9    10 ar  
    15     9    37 1   
    16    10    11 ar  
    17    10    38 1   
    18    11    12 1   
    19    12    13 1   
    20    13    14 1   
    21    13    39 1   
    22    13    40 1   
    23    14    15 ar  
    24    14    16 ar  
    25    15    20 ar  
    26    15    41 1   
    27    16    17 ar  
    28    16    42 1   
    29    17    18 ar  
    30    17    43 1   
    31    18    19 1   
    32    18    20 ar  
    33    20    21 1   
    34    21    22 2   
    35    21    23 1   
    36    23    24 1   
    37    23    26 1   
    38    24    25 1   
    39    24    44 1   
    40    24    45 1   
    41    25    28 1   
    42    25    46 1   
    43    25    47 1   
    44    26    27 1   
    45    26    48 1   
    46    26    49 1   
    47    27    28 1   
    48    27    50 1   
    49    27    51 1   
    50    28    29 1   
    51    29    30 1   
    52    29    52 1   
    53    29    53 1   
    54    30    31 1   
    55    30    32 1   
    56    30    33 1   
@<TRIPOS>SUBSTRUCTURE
     1 7UL         1 TEMP              0 ****  ****    0 ROOT
