@<TRIPOS>MOLECULE
molecule
   45    48     1     0     0
SMALL
bcc


@<TRIPOS>ATOM
      1 N2           0.0000     0.0000     0.0000 nz         1 7UP      -0.747600
      2 C1           1.3780     0.0000     0.0000 ce         1 7UP       0.522800
      3 N1           2.0300     0.0000     1.1280 n2         1 7UP      -0.712100
      4 C2           2.1180     0.0010    -1.2810 ca         1 7UP      -0.233900
      5 C11          3.5030    -0.0050    -1.2760 ca         1 7UP      -0.030000
      6 C10          4.1980    -0.0050    -2.4920 ca         1 7UP      -0.091000
      7 C5           3.4730     0.0010    -3.7120 ca         1 7UP      -0.006000
      8 C4           2.0650     0.0070    -3.6840 ca         1 7UP      -0.179000
      9 C3           1.4090     0.0010    -2.4950 ca         1 7UP      -0.247000
     10 C9           5.6070    -0.0090    -2.5180 ca         1 7UP      -0.124000
     11 C8           6.2640    -0.0080    -3.7050 ca         1 7UP      -0.083000
     12 C7           5.5550    -0.0030    -4.9220 ca         1 7UP       0.119000
     13 C6           4.1680     0.0020    -4.9280 ca         1 7UP      -0.113000
     14 C12          6.2720    -0.0000    -6.1620 cg         1 7UP      -0.185000
     15 C13          6.8780     0.0020    -7.1680 ch         1 7UP       0.016000
     16 C14          7.1350     0.3050    -8.5910 ca         1 7UP      -0.043000
     17 C22          6.9150    -0.8170    -9.6610 ca         1 7UP      -0.118000
     18 C21          7.1970    -0.4230   -11.0530 ca         1 7UP      -0.051300
     19 C17          7.6090     0.8410   -11.2650 ca         1 7UP      -0.235300
     20 C16          7.8110     1.7770   -10.5270 ca         1 7UP      -0.069000
     21 C15          7.5550     1.4740    -9.1150 ca         1 7UP      -0.107000
     22 C20          6.9950    -1.5000   -12.1700 c3         1 7UP      -0.090100
     23 C19          7.1930    -1.3800   -13.5630 c3         1 7UP       0.042800
     24 N3           7.6290    -0.0380   -13.7680 n7         1 7UP      -0.761200
     25 C18          7.8630     0.9720   -13.1160 c3         1 7UP       0.298100
     26 H3          -0.2410    -0.8360     0.4940 hn         1 7UP       0.470133
     27 H1          -0.1830    -0.2220    -0.9590 hn         1 7UP       0.470133
     28 H2           3.0270    -0.0440     1.0580 hn         1 7UP       0.465400
     29 H9           3.9900    -0.5770    -0.4960 ha         1 7UP       0.157000
     30 H5           1.9310     1.0610    -3.8940 ha         1 7UP       0.205000
     31 H4           0.6210    -0.4540    -3.0820 ha         1 7UP       0.240000
     32 H8           5.9210     0.2460    -1.5130 ha         1 7UP       0.148000
     33 H7           7.3000    -0.0410    -3.3900 ha         1 7UP       0.167000
     34 H6           3.7880     0.0520    -5.9410 ha         1 7UP       0.173000
     35 H19          6.3890    -1.6580    -9.2270 ha         1 7UP       0.145000
     36 H11          7.7520     2.8350   -10.7540 ha         1 7UP       0.147000
     37 H10          7.6010     2.2680    -8.3790 ha         1 7UP       0.114000
     38 H18          7.3990    -2.2920   -11.5510 hc         1 7UP       0.053200
     39 H17          5.9420    -1.7460   -12.2200 hc         1 7UP       0.053200
     40 H16          6.7280    -2.1800   -14.1250 h1         1 7UP       0.161700
     41 H15          8.2420    -1.1120   -13.6170 h1         1 7UP       0.161700
     42 H14          6.7270     0.3530   -13.5790 hn         1 7UP       0.306800
     43 H12          8.9140     0.9840   -12.8530 h1         1 7UP       0.059700
     44 H13          7.3290     1.9010   -13.2710 h1         1 7UP       0.059700
     45 H23         -0.6120     0.7410     0.2800 hn         1 7UP       0.470133
@<TRIPOS>BOND
     1    10    11 ar
     2    10     6 ar
     3     3     2 2
     4    11    12 ar
     5     5     6 ar
     6     5     4 ar
     7     6     7 ar
     8     2     1 1
     9     2     4 1
    10     4     9 ar
    11    12    14 1
    12    12    13 ar
    13    21    20 ar
    14    21    16 ar
    15     7    13 ar
    16     7     8 ar
    17    14    15 3
    18    15    16 1
    19     9     8 ar
    20    20    19 ar
    21    16    17 ar
    22    19    25 1
    23    19    18 ar
    24    17    18 ar
    25    25    24 1
    26    18    22 1
    27    24    23 1
    28    22    23 1
    29     1    26 1
    30     1    27 1
    31     3    28 1
    32     5    29 1
    33     8    30 1
    34     9    31 1
    35    10    32 1
    36    11    33 1
    37    13    34 1
    38    17    35 1
    39    20    36 1
    40    21    37 1
    41    22    38 1
    42    22    39 1
    43    23    40 1
    44    23    41 1
    45    24    42 1
    46    25    43 1
    47    25    44 1
    48    45     1 1
@<TRIPOS>SUBSTRUCTURE
     1 7UP         1 TEMP              0 ****  ****    0 ROOT
