@<TRIPOS>MOLECULE
7UP
   45    50     1     0     0
SMALL
bcc


@<TRIPOS>ATOM
      1 N2           0.0000     0.0000     0.0000 nz         1 7UP       0.715000
      2 C1           1.3780     0.0000     0.0000 c2         1 7UP      -0.259000
      3 N1           2.0300     0.0000     1.1280 n2         1 7UP       0.068000
      4 C2           2.1180     0.0010    -1.2810 ca         1 7UP      -0.108000
      5 C11          3.5030    -0.0050    -1.2760 ca         1 7UP       0.057000
      6 C10          4.1980    -0.0050    -2.4920 ca         1 7UP      -0.077000
      7 C5           3.4730     0.0010    -3.7120 ca         1 7UP      -0.037000
      8 C4           2.0650     0.0070    -3.6840 ca         1 7UP      -0.041000
      9 C3           1.4090     0.0010    -2.4950 ca         1 7UP      -0.239000
     10 C9           5.6070    -0.0090    -2.5180 ca         1 7UP      -0.040000
     11 C8           6.2640    -0.0080    -3.7050 ca         1 7UP      -0.077000
     12 C7           5.5550    -0.0030    -4.9220 ca         1 7UP       0.119000
     13 C6           4.1680     0.0020    -4.9280 ca         1 7UP      -0.092000
     14 C12          6.2720    -0.0000    -6.1620 c1         1 7UP      -0.206000
     15 C13          6.8570     0.0220    -7.1800 c1         1 7UP      -0.023000
     16 C14          7.6540    -0.4650    -8.3690 ca         1 7UP       0.114000
     17 C22          7.1040    -1.0310    -9.2780 ca         1 7UP      -0.125000
     18 C21          7.7340    -1.6140   -10.5980 ca         1 7UP      -0.041000
     19 C17          9.1610    -1.3470   -10.5460 ca         1 7UP      -0.137000
     20 C16          9.8850    -0.7070    -9.5540 ca         1 7UP      -0.096000
     21 C15          9.1370    -0.1580    -8.2610 ca         1 7UP      -0.124000
     22 C20          7.0940    -2.3740   -11.8480 c3         1 7UP      -0.293000
     23 C19          8.2950    -2.8250   -13.0990 c3         1 7UP       0.084000
     24 N3           9.2700    -2.5410   -12.8700 ny         1 7UP      -0.198000
     25 C18         10.1370    -1.7550   -11.6430 DU         1 7UP       0.164000
     26 H3          -0.4970    -0.3770    -0.7820 hn         1 7UP       0.081333
     27 H1          -0.0310    -0.3110     0.9510 hn         1 7UP       0.081333
     28 H2           1.2420    -0.4770     1.5200 hn         1 7UP       0.038000
     29 H9           4.0350    -0.4800    -0.4610 ha         1 7UP       0.131000
     30 H5           1.6010    -0.0900    -4.6580 ha         1 7UP       0.123000
     31 H4           0.5770    -0.5160    -2.9580 ha         1 7UP       0.155000
     32 H8           5.9930    -0.6360    -1.7230 ha         1 7UP       0.115000
     33 H7           7.2060    -0.3390    -4.1260 ha         1 7UP       0.145000
     34 H6           3.5740    -0.3920    -5.7440 ha         1 7UP       0.123000
     35 H19          6.1140    -1.3930    -9.5290 ha         1 7UP       0.124000
     36 H11         10.9600    -0.5890    -9.6070 ha         1 7UP       0.111000
     37 H10          9.8090     0.2210    -7.5000 ha         1 7UP       0.135000
     38 H18          6.4900    -1.5250   -12.1430 hc         1 7UP       0.104500
     39 H17          7.0690    -3.2710   -11.2420 hc         1 7UP       0.104500
     40 H16          8.5190    -1.8950   -13.6090 DU         1 7UP       0.125000
     41 H15          7.6680    -3.6520   -13.4090 hx         1 7UP       0.077000
     42 H14          9.7600    -2.9390   -12.0930 DU         1 7UP      -0.076000
     43 H12         10.7170    -1.0040   -12.1660 hx         1 7UP       0.056000
     44 H13         11.0010    -2.3850   -11.8150 hx         1 7UP       0.056000
     45 H23         -0.2810     0.6680    -0.6900 hn         1 7UP       0.081333
@<TRIPOS>BOND
     1     1     2 1   
     2     1    26 1   
     3     1    27 1   
     4     1    45 1   
     5     2     3 1   
     6     2     4 1   
     7     3    28 1   
     8     4     5 1   
     9     4     9 1   
    10     5     6 1   
    11     5    29 1   
    12     6     7 1   
    13     6    10 1   
    14     7     8 1   
    15     7    13 1   
    16     8     9 1   
    17     8    30 1   
    18     9    31 1   
    19    10    11 1   
    20    10    32 1   
    21    11    12 1   
    22    11    33 1   
    23    12    13 1   
    24    12    14 1   
    25    13    34 1   
    26    14    15 1   
    27    15    16 1   
    28    16    17 1   
    29    16    21 1   
    30    17    18 1   
    31    17    35 1   
    32    18    19 1   
    33    18    22 1   
    34    19    20 1   
    35    19    25 1   
    36    20    21 1   
    37    20    36 1   
    38    21    37 1   
    39    22    23 1   
    40    22    38 1   
    41    22    39 1   
    42    23    24 1   
    43    23    40 1   
    44    23    41 1   
    45    24    25 1   
    46    24    40 1   
    47    24    42 1   
    48    25    42 1   
    49    25    43 1   
    50    25    44 1   
@<TRIPOS>SUBSTRUCTURE
     1 7UP         1 TEMP              0 ****  ****    0 ROOT
