@<TRIPOS>MOLECULE
7UR
   50    52     1     0     0
SMALL
bcc


@<TRIPOS>ATOM
      1 C10          0.0000     0.0000     0.0000 ca         1 7UR      -0.092000
      2 C15          1.3940    -0.0120     2.4040 ca         1 7UR      -0.086000
      3 C17          3.5880    -0.0000     1.2010 c3         1 7UR       0.006900
      4 C20          6.1300     2.8530     0.9460 c          1 7UR       0.977600
      5 C24          2.7380     0.8190    -4.0240 c3         1 7UR       0.003900
      6 C26          3.1050    -2.9160    -5.1190 ca         1 7UR      -0.101000
      7 C28          2.6930    -4.5330    -6.8410 ca         1 7UR      -0.109000
      8 C02         -0.1970    -2.2500    -6.6920 ca         1 7UR       0.103900
      9 C03         -0.5880    -1.1550    -5.9800 ca         1 7UR      -0.127000
     10 C04          0.2260    -0.6200    -4.9850 ca         1 7UR      -0.043000
     11 C05          1.4310    -1.1810    -4.6870 ca         1 7UR      -0.067300
     12 C06          2.2960    -0.5850    -3.6060 c3         1 7UR      -0.079400
     13 C07          1.5110    -0.5040    -2.3220 c          1 7UR       0.561100
     14 N08          2.0860    -0.0000    -1.2110 ns         1 7UR      -0.019100
     15 C09          1.3860     0.0000     0.0000 ca         1 7UR      -0.090400
     16 C11         -0.6930     0.0010     1.2110 ca         1 7UR       0.014000
     17 C12         -2.1250     0.0060     1.2190 cg         1 7UR       0.260800
     18 N13         -3.2610    -0.0090     1.2280 n1         1 7UR      -0.422800
     19 C14          0.0140    -0.0060     2.4150 ca         1 7UR      -0.089000
     20 C16          2.0810     0.0000     1.2040 ca         1 7UR      -0.069300
     21 C18          4.0980     1.4370     1.0750 c3         1 7UR      -0.042400
     22 C19          5.6280     1.4360     1.0710 c3         1 7UR      -0.126400
     23 O21          7.4490     3.0960     0.9230 o          1 7UR      -0.898800
     24 O22          5.3440     3.7660     0.8680 o          1 7UR      -0.898800
     25 O23          0.3620    -0.8920    -2.2880 o          1 7UR      -0.645100
     26 C25          1.8680    -2.3100    -5.4000 ca         1 7UR      -0.001000
     27 C27          3.4990    -4.0050    -5.8330 ca         1 7UR      -0.091000
     28 C29          1.4830    -3.9790    -7.1320 ca         1 7UR      -0.080000
     29 C30          1.0470    -2.8500    -6.4200 ca         1 7UR      -0.061000
     30 H1          -0.5410     0.0700    -0.9360 ha         1 7UR       0.163000
     31 H2           1.9430    -0.0430     3.3370 ha         1 7UR       0.113000
     32 H3           3.9470    -0.6450     0.4080 hc         1 7UR       0.014700
     33 H4           3.9510    -0.3640     2.1540 hc         1 7UR       0.014700
     34 H5           3.6790     1.0590    -3.5420 hc         1 7UR       0.015367
     35 H6           2.8640     0.8530    -5.0990 hc         1 7UR       0.015367
     36 H7           1.9860     1.5380    -3.7250 hc         1 7UR       0.015367
     37 H8           3.7400    -2.5140    -4.3380 ha         1 7UR       0.117000
     38 H9           3.0220    -5.4010    -7.3990 ha         1 7UR       0.099000
     39 H10         -1.5440    -0.6890    -6.1850 ha         1 7UR       0.115000
     40 H11         -0.0990     0.2510    -4.4290 ha         1 7UR       0.120000
     41 H12          3.1690    -1.2090    -3.4560 hc         1 7UR       0.053700
     42 H13          3.0050     0.3920    -1.2580 hn         1 7UR       0.198500
     43 H14         -0.5200    -0.0190     3.3580 ha         1 7UR       0.105000
     44 H15          4.0620     1.9190     2.0440 hc         1 7UR       0.033700
     45 H16          3.4730     1.9820     0.3780 hc         1 7UR       0.033700
     46 H17          5.9920     1.0040     1.9950 hc         1 7UR       0.002700
     47 H18          5.9850     0.8510     0.2330 hc         1 7UR       0.002700
     48 H20          4.4510    -4.4770    -5.6220 ha         1 7UR       0.100000
     49 H21          0.8690    -4.4020    -7.9180 ha         1 7UR       0.112000
     50 F01         -1.0000    -2.7570    -7.6530 f          1 7UR      -0.132900
@<TRIPOS>BOND
     1     1    15 ar  
     2     1    16 ar  
     3     1    30 1   
     4     2    19 ar  
     5     2    20 ar  
     6     2    31 1   
     7     3    20 1   
     8     3    21 1   
     9     3    32 1   
    10     3    33 1   
    11     4    22 1   
    12     4    23 1   
    13     4    24 1   
    14     5    12 1   
    15     5    34 1   
    16     5    35 1   
    17     5    36 1   
    18     6    26 ar  
    19     6    27 ar  
    20     6    37 1   
    21     7    27 ar  
    22     7    28 ar  
    23     7    38 1   
    24     8     9 ar  
    25     8    29 ar  
    26     8    50 1   
    27     9    10 ar  
    28     9    39 1   
    29    10    11 ar  
    30    10    40 1   
    31    11    12 1   
    32    11    26 ar  
    33    12    13 1   
    34    12    41 1   
    35    13    14 1   
    36    13    25 2   
    37    14    15 1   
    38    14    42 1   
    39    15    20 ar  
    40    16    17 1   
    41    16    19 ar  
    42    17    18 3   
    43    19    43 1   
    44    21    22 1   
    45    21    44 1   
    46    21    45 1   
    47    22    46 1   
    48    22    47 1   
    49    26    29 ar  
    50    27    48 1   
    51    28    29 ar  
    52    28    49 1   
@<TRIPOS>SUBSTRUCTURE
     1 7UR         1 TEMP              0 ****  ****    0 ROOT
