@<TRIPOS>MOLECULE
molecule
   42    44     1     0     0
SMALL
bcc


@<TRIPOS>ATOM
      1 C1           0.0000     0.0000     0.0000 ca         1 7UU      -0.148000
      2 C2           1.3800     0.0000     0.0000 ca         1 7UU      -0.080000
      3 C3           2.0870     0.0000     1.1930 ca         1 7UU      -0.158000
      4 C4           1.4180    -0.0000     2.3970 ca         1 7UU      -0.079000
      5 C5           0.0220    -0.0010     2.4120 ca         1 7UU      -0.165800
      6 C6          -0.6920    -0.0010     1.2040 ca         1 7UU       0.187100
      7 O7          -2.0430    -0.0020     1.2220 os         1 7UU      -0.316200
      8 C8          -2.7330    -0.0030     2.3740 c          1 7UU       0.759800
      9 C9          -2.0950    -0.0030     3.6200 cc         1 7UU      -0.410200
     10 C10         -0.7240    -0.0020     3.6800 cd         1 7UU       0.275800
     11 O11         -3.9520    -0.0030     2.3340 o          1 7UU      -0.599500
     12 N12         -0.0670    -0.0020     4.8910 nu         1 7UU      -0.791000
     13 C13         -0.8330    -0.0040     6.1400 c3         1 7UU       0.231800
     14 C14          0.1310    -0.0040     7.3290 c3         1 7UU      -0.124400
     15 C15         -0.6690    -0.0050     8.6330 c3         1 7UU       0.119000
     16 N16          0.2530    -0.0060     9.7720 n          1 7UU      -0.493800
     17 C17          0.6770     1.1610    10.2960 c          1 7UU       0.709700
     18 C18          1.5840     1.1600    11.4480 cd         1 7UU      -0.127700
     19 S19          2.3710    -0.2590    12.1260 ss         1 7UU      -0.090800
     20 C20          3.1440     0.6830    13.3200 cd         1 7UU      -0.104100
     21 C21          2.8160     1.9750    13.1980 cc         1 7UU      -0.173000
     22 C22          1.9570     2.2630    12.1630 cc         1 7UU      -0.072000
     23 O23          0.3070     2.2150     9.8130 o          1 7UU      -0.599100
     24 C24          0.7150    -1.2750    10.3400 c3         1 7UU       0.077300
     25 H1          -0.5420    -0.0000    -0.9380 ha         1 7UU       0.156000
     26 H2           1.9160     0.0000    -0.9410 ha         1 7UU       0.141000
     27 H3           3.1710     0.0000     1.1780 ha         1 7UU       0.137000
     28 H4           1.9720    -0.0000     3.3280 ha         1 7UU       0.128000
     29 H5          -2.6800    -0.0040     4.5320 ha         1 7UU       0.167000
     30 H6           0.9330    -0.0200     4.9170 hn         1 7UU       0.442800
     31 H7          -1.4580     0.8800     6.1820 h1         1 7UU       0.053200
     32 H8          -1.4560    -0.8890     6.1810 h1         1 7UU       0.053200
     33 H9           0.7560    -0.8880     7.2880 hc         1 7UU       0.057700
     34 H10          0.7540     0.8810     7.2890 hc         1 7UU       0.057700
     35 H11         -1.2930    -0.8900     8.6730 h1         1 7UU       0.065200
     36 H12         -1.2930     0.8790     8.6750 h1         1 7UU       0.065200
     37 H14          3.8090     0.2880    14.0780 h4         1 7UU       0.171000
     38 H16          3.2030     2.7390    13.8620 ha         1 7UU       0.151000
     39 H18          1.6050     3.2630    11.9430 ha         1 7UU       0.172000
     40 H20          0.2490    -2.0980     9.8120 h1         1 7UU       0.051367
     41 H21          0.4470    -1.3200    11.3880 h1         1 7UU       0.051367
     42 H22          1.7910    -1.3450    10.2390 h1         1 7UU       0.051367
@<TRIPOS>BOND
     1     1     2 ar
     2     1     6 ar
     3     2     3 ar
     4     7     6 1
     5     7     8 1
     6     6     5 ar
     7    11     8 2
     8     8     9 1
     9     3     4 ar
    10     5     4 ar
    11     5    10 1
    12     9    10 2
    13    10    12 1
    14    12    13 1
    15    13    14 1
    16    21    22 1
    17    21    20 2
    18    14    15 1
    19    22    18 2
    20    20    19 1
    21    15    16 1
    22    18    19 1
    23    18    17 1
    24    16    17 1
    25    16    24 1
    26    17    23 2
    27     1    25 1
    28     2    26 1
    29     3    27 1
    30     4    28 1
    31     9    29 1
    32    12    30 1
    33    13    31 1
    34    13    32 1
    35    14    33 1
    36    14    34 1
    37    15    35 1
    38    15    36 1
    39    20    37 1
    40    21    38 1
    41    22    39 1
    42    24    40 1
    43    24    41 1
    44    24    42 1
@<TRIPOS>SUBSTRUCTURE
     1 7UU         1 TEMP              0 ****  ****    0 ROOT
