@<TRIPOS>MOLECULE
7UU
   42    44     1     0     0
SMALL
bcc


@<TRIPOS>ATOM
      1 C1           0.0000     0.0000     0.0000 ca         1 7UU      -0.132000
      2 C2           1.3800     0.0000     0.0000 ca         1 7UU      -0.048000
      3 C3           2.0870     0.0000     1.1930 ca         1 7UU      -0.134000
      4 C4           1.4180    -0.0000     2.3970 ca         1 7UU      -0.054000
      5 C5           0.0220    -0.0010     2.4120 ca         1 7UU      -0.167800
      6 C6          -0.6920    -0.0010     1.2040 ca         1 7UU       0.191100
      7 O7          -2.0430    -0.0020     1.2220 os         1 7UU      -0.284200
      8 C8          -2.7330    -0.0030     2.3740 c          1 7UU       0.815800
      9 C9          -2.0950    -0.0030     3.6200 cc         1 7UU      -0.419200
     10 C10         -0.7240    -0.0020     3.6800 cd         1 7UU       0.140800
     11 O11         -3.9520    -0.0030     2.3340 o          1 7UU      -0.651500
     12 N12         -0.0670    -0.0020     4.8910 nu         1 7UU      -0.375000
     13 C13         -0.8330    -0.0040     6.1400 c3         1 7UU       0.158800
     14 C14          0.1310    -0.0040     7.3290 c3         1 7UU      -0.064400
     15 C15         -0.6690    -0.0050     8.6330 c3         1 7UU       0.063000
     16 N16          0.2530    -0.0060     9.7720 n          1 7UU      -0.152800
     17 C17          0.6770     1.1610    10.2960 c          1 7UU       0.648700
     18 C18          1.5840     1.1600    11.4480 cc         1 7UU      -0.091700
     19 S19          2.3710    -0.2590    12.1260 ss         1 7UU      -0.220800
     20 C20          3.1440     0.6830    13.3200 cc         1 7UU      -0.020100
     21 C21          2.8160     1.9750    13.1980 cd         1 7UU      -0.143000
     22 C22          1.9570     2.2630    12.1630 cd         1 7UU      -0.032000
     23 O23          0.3070     2.2150     9.8130 o          1 7UU      -0.642100
     24 C24          0.7150    -1.2750    10.3400 c3         1 7UU       0.035300
     25 H1          -0.5420    -0.0000    -0.9380 ha         1 7UU       0.124000
     26 H2           1.9160     0.0000    -0.9410 ha         1 7UU       0.106000
     27 H3           3.1710     0.0000     1.1780 ha         1 7UU       0.109000
     28 H4           1.9720    -0.0000     3.3280 ha         1 7UU       0.101000
     29 H5          -2.6800    -0.0040     4.5320 ha         1 7UU       0.153000
     30 H6           0.9330    -0.0200     4.9170 hn         1 7UU       0.296800
     31 H7          -1.4580     0.8800     6.1820 h1         1 7UU       0.027700
     32 H8          -1.4560    -0.8890     6.1810 h1         1 7UU       0.027700
     33 H9           0.7560    -0.8880     7.2880 hc         1 7UU       0.027700
     34 H10          0.7540     0.8810     7.2890 hc         1 7UU       0.027700
     35 H11         -1.2930    -0.8900     8.6730 h1         1 7UU       0.036700
     36 H12         -1.2930     0.8790     8.6750 h1         1 7UU       0.036700
     37 H14          3.8090     0.2880    14.0780 h4         1 7UU       0.149000
     38 H16          3.2030     2.7390    13.8620 ha         1 7UU       0.123000
     39 H18          1.6050     3.2630    11.9430 ha         1 7UU       0.140000
     40 H20          0.2490    -2.0980     9.8120 h1         1 7UU       0.030033
     41 H21          0.4470    -1.3200    11.3880 h1         1 7UU       0.030033
     42 H22          1.7910    -1.3450    10.2390 h1         1 7UU       0.030033
@<TRIPOS>BOND
     1     1     2 ar  
     2     1     6 ar  
     3     1    25 1   
     4     2     3 ar  
     5     2    26 1   
     6     3     4 ar  
     7     3    27 1   
     8     4     5 ar  
     9     4    28 1   
    10     5     6 ar  
    11     5    10 1   
    12     6     7 1   
    13     7     8 1   
    14     8     9 1   
    15     8    11 2   
    16     9    10 2   
    17     9    29 1   
    18    10    12 1   
    19    12    13 1   
    20    12    30 1   
    21    13    14 1   
    22    13    31 1   
    23    13    32 1   
    24    14    15 1   
    25    14    33 1   
    26    14    34 1   
    27    15    16 1   
    28    15    35 1   
    29    15    36 1   
    30    16    17 1   
    31    16    24 1   
    32    17    18 1   
    33    17    23 2   
    34    18    19 1   
    35    18    22 2   
    36    19    20 1   
    37    20    21 2   
    38    20    37 1   
    39    21    22 1   
    40    21    38 1   
    41    22    39 1   
    42    24    40 1   
    43    24    41 1   
    44    24    42 1   
@<TRIPOS>SUBSTRUCTURE
     1 7UU         1 TEMP              0 ****  ****    0 ROOT
