@<TRIPOS>MOLECULE
molecule
   40    42     1     0     0
SMALL
bcc


@<TRIPOS>ATOM
      1 C1           0.0000     0.0000     0.0000 ca         1 7UX      -0.129000
      2 C2           1.3830     0.0000     0.0000 ca         1 7UX      -0.121000
      3 C3          -0.6980     0.0010     1.1950 ca         1 7UX      -0.121000
      4 C4           2.0760     0.0000     1.1920 ca         1 7UX      -0.121500
      5 C5          -0.0180    -0.0030     2.3950 ca         1 7UX      -0.121500
      6 C6           1.5630     0.0010     4.9150 cc         1 7UX       0.406200
      7 C7           1.3780     0.0000     2.4010 ca         1 7UX       0.007000
      8 C8           2.1140    -0.0000     3.6830 cd         1 7UX      -0.115400
      9 C9           3.6930    -0.0060     5.5730 cd         1 7UX       0.571300
     10 C10          4.4970    -0.0010     7.8030 c          1 7UX       0.650100
     11 C11          5.0890     0.0050    10.2120 c3         1 7UX      -0.066900
     12 C12          6.4890    -1.2610     8.5800 c3         1 7UX      -0.066900
     13 C13          6.2530    -0.0570    11.2050 c3         1 7UX       0.163300
     14 C14          7.6130    -1.2870     9.6190 c3         1 7UX       0.163300
     15 C15          5.6410    -0.0020     8.7840 c3         1 7UX      -0.145700
     16 N17          2.4370     0.0000     5.8980 nc         1 7UX      -0.682000
     17 N18          7.0340    -1.2790    10.9680 n3         1 7UX      -0.729600
     18 N19          4.7470    -0.0070     6.4780 ns         1 7UX      -0.534400
     19 O20          3.3530     0.0060     8.2040 o          1 7UX      -0.522100
     20 S21          3.8660    -0.0010     3.8730 ss         1 7UX      -0.226300
     21 H1          -0.5390     0.0020    -0.9400 ha         1 7UX       0.130000
     22 H2           1.9230    -0.0010    -0.9390 ha         1 7UX       0.131500
     23 H3          -1.7820    -0.0000     1.1880 ha         1 7UX       0.131500
     24 H4           3.1600     0.0010     1.1910 ha         1 7UX       0.133000
     25 H5          -0.5650    -0.0030     3.3300 ha         1 7UX       0.133000
     26 H6           0.4920     0.0050     5.0800 h4         1 7UX       0.051100
     27 H7           4.5250     0.9160    10.3750 hc         1 7UX       0.060700
     28 H8           4.4470    -0.8550    10.3550 hc         1 7UX       0.060700
     29 H9           5.8660    -2.1390     8.7010 hc         1 7UX       0.060700
     30 H10          6.9180    -1.2500     7.5850 hc         1 7UX       0.060700
     31 H11          6.8890     0.8080    11.0680 h1         1 7UX       0.035200
     32 H12          5.8630    -0.0690    12.2150 h1         1 7UX       0.035200
     33 H13          8.2040    -2.1850     9.4860 h1         1 7UX       0.035200
     34 H14          8.2400    -0.4130     9.4910 h1         1 7UX       0.035200
     35 H15          6.2570     0.8760     8.6310 hc         1 7UX       0.063700
     36 H16          8.6120    -2.3670    11.8150 h1         1 7UX       0.032700
     37 H17          8.7660    -0.6090    11.9380 h1         1 7UX       0.032700
     38 H18          7.6180    -1.4710    12.9720 h1         1 7UX       0.032700
     39 H20          5.6900     0.0320     6.1470 hn         1 7UX       0.333500
     40 C16          8.0760    -1.4420    11.9900 c3         1 7UX       0.153100
@<TRIPOS>BOND
     1     2     1 ar
     2     2     4 ar
     3     1     3 ar
     4     4     7 ar
     5     3     5 ar
     6     7     5 ar
     7     7     8 1
     8     8     6 2
     9     8    20 1
    10     6    16 1
    11    20     9 1
    12    16     9 2
    13     9    18 1
    14    18    10 1
    15    19    10 2
    16    10    15 1
    17    15    11 1
    18    15    12 1
    19    11    13 1
    20    12    14 1
    21    13    17 1
    22    14    17 1
    23    17    40 1
    24     1    21 1
    25     2    22 1
    26     3    23 1
    27     4    24 1
    28     5    25 1
    29     6    26 1
    30    11    27 1
    31    11    28 1
    32    12    29 1
    33    12    30 1
    34    13    31 1
    35    13    32 1
    36    14    33 1
    37    14    34 1
    38    15    35 1
    39    40    36 1
    40    40    37 1
    41    40    38 1
    42    18    39 1
@<TRIPOS>SUBSTRUCTURE
     1 7UX         1 TEMP              0 ****  ****    0 ROOT
