@<TRIPOS>MOLECULE
7UX
   40    42     1     0     0
SMALL
bcc


@<TRIPOS>ATOM
      1 C1           0.0000     0.0000     0.0000 ca         1 7UX      -0.101000
      2 C2           1.3830     0.0000     0.0000 ca         1 7UX      -0.094000
      3 C3          -0.6980     0.0010     1.1950 ca         1 7UX      -0.094000
      4 C4           2.0760     0.0000     1.1920 ca         1 7UX      -0.097500
      5 C5          -0.0180    -0.0030     2.3950 ca         1 7UX      -0.097500
      6 C6           1.5630     0.0010     4.9150 cc         1 7UX       0.383200
      7 C7           1.3780     0.0000     2.4010 ca         1 7UX       0.013000
      8 C8           2.1140    -0.0000     3.6830 cd         1 7UX      -0.063400
      9 C9           3.6930    -0.0060     5.5730 cd         1 7UX       0.405300
     10 C10          4.4970    -0.0010     7.8030 c          1 7UX       0.544100
     11 C11          5.0890     0.0050    10.2120 c3         1 7UX      -0.015400
     12 C12          6.4890    -1.2610     8.5800 c3         1 7UX      -0.015400
     13 C13          6.2530    -0.0570    11.2050 c3         1 7UX       0.155800
     14 C14          7.6130    -1.2870     9.6190 c3         1 7UX       0.155800
     15 C15          5.6410    -0.0020     8.7840 c3         1 7UX      -0.123700
     16 N17          2.4370     0.0000     5.8980 nc         1 7UX      -0.554000
     17 N18          7.0340    -1.2790    10.9680 n3         1 7UX      -0.542600
     18 N19          4.7470    -0.0070     6.4780 ns         1 7UX      -0.078400
     19 O20          3.3530     0.0060     8.2040 o          1 7UX      -0.559100
     20 S21          3.8660    -0.0010     3.8730 ss         1 7UX      -0.318300
     21 H1          -0.5390     0.0020    -0.9400 ha         1 7UX       0.103000
     22 H2           1.9230    -0.0010    -0.9390 ha         1 7UX       0.104000
     23 H3          -1.7820    -0.0000     1.1880 ha         1 7UX       0.104000
     24 H4           3.1600     0.0010     1.1910 ha         1 7UX       0.111500
     25 H5          -0.5650    -0.0030     3.3300 ha         1 7UX       0.111500
     26 H6           0.4920     0.0050     5.0800 h4         1 7UX       0.008100
     27 H7           4.5250     0.9160    10.3750 hc         1 7UX       0.030200
     28 H8           4.4470    -0.8550    10.3550 hc         1 7UX       0.030200
     29 H9           5.8660    -2.1390     8.7010 hc         1 7UX       0.030200
     30 H10          6.9180    -1.2500     7.5850 hc         1 7UX       0.030200
     31 H11          6.8890     0.8080    11.0680 h1         1 7UX       0.008450
     32 H12          5.8630    -0.0690    12.2150 h1         1 7UX       0.008450
     33 H13          8.2040    -2.1850     9.4860 h1         1 7UX       0.008450
     34 H14          8.2400    -0.4130     9.4910 h1         1 7UX       0.008450
     35 H15          6.2570     0.8760     8.6310 hc         1 7UX       0.036700
     36 H16          8.6120    -2.3670    11.8150 h1         1 7UX       0.000367
     37 H17          8.7660    -0.6090    11.9380 h1         1 7UX       0.000367
     38 H18          7.6180    -1.4710    12.9720 h1         1 7UX       0.000367
     39 H20          5.6900     0.0320     6.1470 hn         1 7UX       0.174500
     40 C16          8.0760    -1.4420    11.9900 c3         1 7UX       0.188100
@<TRIPOS>BOND
     1     1     2 ar  
     2     1     3 ar  
     3     1    21 1   
     4     2     4 ar  
     5     2    22 1   
     6     3     5 ar  
     7     3    23 1   
     8     4     7 ar  
     9     4    24 1   
    10     5     7 ar  
    11     5    25 1   
    12     6     8 2   
    13     6    16 1   
    14     6    26 1   
    15     7     8 1   
    16     8    20 1   
    17     9    16 2   
    18     9    18 1   
    19     9    20 1   
    20    10    15 1   
    21    10    18 1   
    22    10    19 2   
    23    11    13 1   
    24    11    15 1   
    25    11    27 1   
    26    11    28 1   
    27    12    14 1   
    28    12    15 1   
    29    12    29 1   
    30    12    30 1   
    31    13    17 1   
    32    13    31 1   
    33    13    32 1   
    34    14    17 1   
    35    14    33 1   
    36    14    34 1   
    37    15    35 1   
    38    17    40 1   
    39    18    39 1   
    40    36    40 1   
    41    37    40 1   
    42    38    40 1   
@<TRIPOS>SUBSTRUCTURE
     1 7UX         1 TEMP              0 ****  ****    0 ROOT
