@<TRIPOS>MOLECULE
molecule
   63    65     1     0     0
SMALL
bcc


@<TRIPOS>ATOM
      1 C4           0.0000     0.0000     0.0000 ca         1 7UY      -0.080000
      2 C5           1.3810     0.0000     0.0000 ca         1 7UY      -0.151300
      3 C6           2.1360     0.0010    -1.3040 c3         1 7UY       0.171300
      4 C7           4.0780    -0.0010     2.4810 c3         1 7UY       0.128400
      5 C8           5.5960    -0.0010     2.2830 c3         1 7UY      -0.082400
      6 C10          7.8040    -0.0010     3.4510 c3         1 7UY      -0.062400
      7 C13          3.8950    -1.8190    -1.1340 c3         1 7UY       0.107700
      8 C15          1.8180    -3.6380    -2.0520 ca         1 7UY      -0.171600
      9 C17          0.6180    -4.3550    -2.0050 ca         1 7UY      -0.082000
     10 C20          3.0470    -5.6440    -1.5910 ca         1 7UY      -0.156500
     11 C21          1.8660    -7.8150    -1.2710 cc         1 7UY      -0.068000
     12 C22          3.0450    -8.5320    -1.0540 cd         1 7UY      -0.136000
     13 C24          2.8490    -9.8280    -0.8260 cc         1 7UY      -0.085100
     14 C26          4.7730    -2.1840    -2.3330 c3         1 7UY      -0.133100
     15 O3           1.0770    -1.7400    -3.1910 o          1 7UY      -0.603100
     16 C14          1.8000    -2.1870    -2.3230 c          1 7UY       0.692700
     17 C18          0.6350    -5.7020    -1.7530 ca         1 7UY      -0.156500
     18 C19          1.8490    -6.3590    -1.5440 ca         1 7UY       0.012000
     19 C23          0.7480    -8.5610    -1.2190 cd         1 7UY      -0.098100
     20 S            1.1300   -10.1900    -0.8830 ss         1 7UY      -0.128800
     21 C16          3.0320    -4.2960    -1.8370 ca         1 7UY      -0.082000
     22 N            2.5880    -1.3590    -1.6080 n          1 7UY      -0.496800
     23 C25          3.7110    -3.0490    -0.2430 c3         1 7UY      -0.133100
     24 C3          -0.6930     0.0000     1.1970 ca         1 7UY      -0.179000
     25 C2          -0.0050    -0.0060     2.3970 ca         1 7UY      -0.087000
     26 C1           1.3770    -0.0100     2.4020 ca         1 7UY      -0.223000
     27 C            2.0740     0.0000     1.2030 ca         1 7UY       0.164100
     28 O            3.4320    -0.0010     1.2050 os         1 7UY      -0.337900
     29 C9           6.2880    -0.0010     3.6470 c3         1 7UY      -0.086400
     30 C11          8.4970    -0.0010     4.8150 c3         1 7UY      -0.182400
     31 C12          9.9900    -0.0010     4.6200 c          1 7UY       0.890600
     32 O1          10.8070    -0.0010     5.6860 o          1 7UY      -0.855300
     33 O2          10.4550    -0.0010     3.5050 o          1 7UY      -0.855300
     34 H3          -0.5410     0.0040    -0.9380 ha         1 7UY       0.138000
     35 H5           1.4860     0.3510    -2.0970 h1         1 7UY       0.067200
     36 H4           2.9940     0.6570    -1.2250 h1         1 7UY       0.067200
     37 H6           3.7860     0.8840     3.0330 h1         1 7UY       0.035200
     38 H7           3.7860    -0.8850     3.0340 h1         1 7UY       0.035200
     39 H8           5.8880    -0.8850     1.7300 hc         1 7UY       0.051700
     40 H9           5.8880     0.8830     1.7300 hc         1 7UY       0.051700
     41 H13          8.0970    -0.8860     2.8980 hc         1 7UY       0.047700
     42 H12          8.0970     0.8830     2.8970 hc         1 7UY       0.047700
     43 H16          4.3640    -1.0180    -0.5740 h1         1 7UY       0.093700
     44 H18         -0.3240    -3.8460    -2.1670 ha         1 7UY       0.164000
     45 H20          3.9890    -6.1530    -1.4240 ha         1 7UY       0.131500
     46 H21          4.0270    -8.0750    -1.0690 ha         1 7UY       0.156000
     47 H23          3.6320   -10.5520    -0.6340 h4         1 7UY       0.170000
     48 H28          4.1480    -2.5440    -3.1410 hc         1 7UY       0.052200
     49 H27          5.3190    -1.3080    -2.6610 hc         1 7UY       0.052200
     50 H29          5.4730    -2.9590    -2.0450 hc         1 7UY       0.052200
     51 H19         -0.2940    -6.2580    -1.7160 ha         1 7UY       0.131500
     52 H22         -0.2560    -8.1800    -1.3630 h4         1 7UY       0.173000
     53 H17          3.9620    -3.7410    -1.8730 ha         1 7UY       0.164000
     54 H26          2.7010    -3.4250    -0.3500 hc         1 7UY       0.052200
     55 H25          3.8870    -2.7760     0.7910 hc         1 7UY       0.052200
     56 H24          4.4160    -3.8170    -0.5380 hc         1 7UY       0.052200
     57 H2          -1.7760     0.0020     1.1940 ha         1 7UY       0.125000
     58 H1          -0.5510    -0.0100     3.3330 ha         1 7UY       0.125000
     59 H            1.9150    -0.0120     3.3420 ha         1 7UY       0.141000
     60 H11          5.9950    -0.8850     4.2010 hc         1 7UY       0.032200
     61 H10          5.9960     0.8840     4.2000 hc         1 7UY       0.032200
     62 H14          8.2050    -0.8850     5.3680 hc         1 7UY       0.027700
     63 H15          8.2050     0.8840     5.3680 hc         1 7UY       0.027700
@<TRIPOS>BOND
     1    20    13 1
     2    20    19 1
     3    13    12 2
     4    12    11 1
     5    19    11 2
     6    11    18 1
     7    18    17 ar
     8    18    10 ar
     9    17     9 ar
    10    10    21 ar
    11     9     8 ar
    12    21     8 ar
    13     8    16 1
    14     5     4 1
    15     5    29 1
    16     6    29 1
    17     6    30 1
    18    16    15 2
    19    16    22 1
    20    28     4 1
    21    28    27 1
    22     3     2 1
    23     3    22 1
    24    30    31 1
    25    27     2 ar
    26    27    26 ar
    27     2     1 ar
    28    22     7 1
    29    26    25 ar
    30     1    24 ar
    31    33    31 1
    32    25    24 ar
    33    31    32 1
    34     7    23 1
    35     7    14 1
    36     1    34 1
    37     3    35 1
    38     3    36 1
    39     4    37 1
    40     4    38 1
    41     5    39 1
    42     5    40 1
    43     6    41 1
    44     6    42 1
    45     7    43 1
    46     9    44 1
    47    10    45 1
    48    12    46 1
    49    13    47 1
    50    14    48 1
    51    14    49 1
    52    14    50 1
    53    17    51 1
    54    19    52 1
    55    21    53 1
    56    23    54 1
    57    23    55 1
    58    23    56 1
    59    24    57 1
    60    25    58 1
    61    26    59 1
    62    29    60 1
    63    29    61 1
    64    30    62 1
    65    30    63 1
@<TRIPOS>SUBSTRUCTURE
     1 7UY         1 TEMP              0 ****  ****    0 ROOT
