@<TRIPOS>MOLECULE
7UY
   63    65     1     0     0
SMALL
bcc


@<TRIPOS>ATOM
      1 C4           0.0000     0.0000     0.0000 ca         1 7UY      -0.047000
      2 C5           1.3810     0.0000     0.0000 ca         1 7UY      -0.172300
      3 C6           2.1360     0.0010    -1.3040 c3         1 7UY       0.126300
      4 C7           4.0780    -0.0010     2.4810 c3         1 7UY       0.193400
      5 C8           5.5960    -0.0010     2.2830 c3         1 7UY      -0.037400
      6 C10          7.8040    -0.0010     3.4510 c3         1 7UY      -0.015400
      7 C13          3.8950    -1.8190    -1.1340 c3         1 7UY       0.023700
      8 C15          1.8180    -3.6380    -2.0520 ca         1 7UY      -0.176600
      9 C17          0.6180    -4.3550    -2.0050 ca         1 7UY      -0.076000
     10 C20          3.0470    -5.6440    -1.5910 ca         1 7UY      -0.132000
     11 C21          1.8660    -7.8150    -1.2710 cc         1 7UY      -0.059000
     12 C22          3.0450    -8.5320    -1.0540 cc         1 7UY      -0.111000
     13 C24          2.8490    -9.8280    -0.8260 cd         1 7UY      -0.006100
     14 C26          4.7730    -2.1840    -2.3330 c3         1 7UY      -0.078600
     15 O3           1.0770    -1.7400    -3.1910 o          1 7UY      -0.641100
     16 C14          1.8000    -2.1870    -2.3230 c          1 7UY       0.633700
     17 C18          0.6350    -5.7020    -1.7530 ca         1 7UY      -0.132000
     18 C19          1.8490    -6.3590    -1.5440 ca         1 7UY       0.011000
     19 C23          0.7480    -8.5610    -1.2190 cd         1 7UY      -0.027100
     20 S            1.1300   -10.1900    -0.8830 ss         1 7UY      -0.253800
     21 C16          3.0320    -4.2960    -1.8370 ca         1 7UY      -0.076000
     22 N            2.5880    -1.3590    -1.6080 n          1 7UY      -0.163800
     23 C25          3.7110    -3.0490    -0.2430 c3         1 7UY      -0.078600
     24 C3          -0.6930     0.0000     1.1970 ca         1 7UY      -0.158000
     25 C2          -0.0050    -0.0060     2.3970 ca         1 7UY      -0.053000
     26 C1           1.3770    -0.0100     2.4020 ca         1 7UY      -0.213000
     27 C            2.0740     0.0000     1.2030 ca         1 7UY       0.176100
     28 O            3.4320    -0.0010     1.2050 os         1 7UY      -0.312900
     29 C9           6.2880    -0.0010     3.6470 c3         1 7UY      -0.031400
     30 C11          8.4970    -0.0010     4.8150 c3         1 7UY      -0.133400
     31 C12          9.9900    -0.0010     4.6200 c          1 7UY       0.979600
     32 O1          10.8070    -0.0010     5.6860 o          1 7UY      -0.904800
     33 O2          10.4550    -0.0010     3.5050 o          1 7UY      -0.904800
     34 H3          -0.5410     0.0040    -0.9380 ha         1 7UY       0.111000
     35 H5           1.4860     0.3510    -2.0970 h1         1 7UY       0.038200
     36 H4           2.9940     0.6570    -1.2250 h1         1 7UY       0.038200
     37 H6           3.7860     0.8840     3.0330 h1         1 7UY       0.003200
     38 H7           3.7860    -0.8850     3.0340 h1         1 7UY       0.003200
     39 H8           5.8880    -0.8850     1.7300 hc         1 7UY       0.022200
     40 H9           5.8880     0.8830     1.7300 hc         1 7UY       0.022200
     41 H13          8.0970    -0.8860     2.8980 hc         1 7UY       0.022200
     42 H12          8.0970     0.8830     2.8970 hc         1 7UY       0.022200
     43 H16          4.3640    -1.0180    -0.5740 h1         1 7UY       0.067700
     44 H18         -0.3240    -3.8460    -2.1670 ha         1 7UY       0.151500
     45 H20          3.9890    -6.1530    -1.4240 ha         1 7UY       0.111000
     46 H21          4.0270    -8.0750    -1.0690 ha         1 7UY       0.130000
     47 H23          3.6320   -10.5520    -0.6340 h4         1 7UY       0.147000
     48 H28          4.1480    -2.5440    -3.1410 hc         1 7UY       0.032200
     49 H27          5.3190    -1.3080    -2.6610 hc         1 7UY       0.032200
     50 H29          5.4730    -2.9590    -2.0450 hc         1 7UY       0.032200
     51 H19         -0.2940    -6.2580    -1.7160 ha         1 7UY       0.111000
     52 H22         -0.2560    -8.1800    -1.3630 h4         1 7UY       0.156000
     53 H17          3.9620    -3.7410    -1.8730 ha         1 7UY       0.151500
     54 H26          2.7010    -3.4250    -0.3500 hc         1 7UY       0.032200
     55 H25          3.8870    -2.7760     0.7910 hc         1 7UY       0.032200
     56 H24          4.4160    -3.8170    -0.5380 hc         1 7UY       0.032200
     57 H2          -1.7760     0.0020     1.1940 ha         1 7UY       0.102000
     58 H1          -0.5510    -0.0100     3.3330 ha         1 7UY       0.097000
     59 H            1.9150    -0.0120     3.3420 ha         1 7UY       0.127000
     60 H11          5.9950    -0.8850     4.2010 hc         1 7UY       0.006200
     61 H10          5.9960     0.8840     4.2000 hc         1 7UY       0.006200
     62 H14          8.2050    -0.8850     5.3680 hc         1 7UY       0.004200
     63 H15          8.2050     0.8840     5.3680 hc         1 7UY       0.004200
@<TRIPOS>BOND
     1     1     2 ar  
     2     1    24 ar  
     3     1    34 1   
     4     2     3 1   
     5     2    27 ar  
     6     3    22 1   
     7     3    35 1   
     8     3    36 1   
     9     4     5 1   
    10     4    28 1   
    11     4    37 1   
    12     4    38 1   
    13     5    29 1   
    14     5    39 1   
    15     5    40 1   
    16     6    29 1   
    17     6    30 1   
    18     6    41 1   
    19     6    42 1   
    20     7    14 1   
    21     7    22 1   
    22     7    23 1   
    23     7    43 1   
    24     8     9 ar  
    25     8    16 1   
    26     8    21 ar  
    27     9    17 ar  
    28     9    44 1   
    29    10    18 ar  
    30    10    21 ar  
    31    10    45 1   
    32    11    12 1   
    33    11    18 1   
    34    11    19 2   
    35    12    13 2   
    36    12    46 1   
    37    13    20 1   
    38    13    47 1   
    39    14    48 1   
    40    14    49 1   
    41    14    50 1   
    42    15    16 2   
    43    16    22 1   
    44    17    18 ar  
    45    17    51 1   
    46    19    20 1   
    47    19    52 1   
    48    21    53 1   
    49    23    54 1   
    50    23    55 1   
    51    23    56 1   
    52    24    25 ar  
    53    24    57 1   
    54    25    26 ar  
    55    25    58 1   
    56    26    27 ar  
    57    26    59 1   
    58    27    28 1   
    59    29    60 1   
    60    29    61 1   
    61    30    31 1   
    62    30    62 1   
    63    30    63 1   
    64    31    32 1   
    65    31    33 1   
@<TRIPOS>SUBSTRUCTURE
     1 7UY         1 TEMP              0 ****  ****    0 ROOT
