@<TRIPOS>MOLECULE
molecule
   28    28     1     0     0
SMALL
bcc


@<TRIPOS>ATOM
      1 C1           0.0000     0.0000     0.0000 c          1 7UZ       0.916100
      2 O2           1.3420     0.0000     0.0000 o          1 7UZ      -0.880050
      3 O3          -0.6040     0.0000     1.0460 o          1 7UZ      -0.880050
      4 C4          -0.7540     0.0090    -1.3060 c3         1 7UZ      -0.266700
      5 C5          -0.3900    -1.2180    -2.1030 c          1 7UZ       0.916100
      6 O6           0.8850    -1.4290    -2.4660 o          1 7UZ      -0.880050
      7 O7          -1.2460    -2.0110    -2.4160 o          1 7UZ      -0.880050
      8 C8          -2.2580     0.0080    -1.0260 c3         1 7UZ      -0.030400
      9 C10         -2.6470     1.3120    -0.3260 c3         1 7UZ      -0.077700
     10 C13         -2.4120     2.4890    -1.2730 c3         1 7UZ      -0.072400
     11 C14         -2.8020     3.7920    -0.5740 c3         1 7UZ      -0.079900
     12 C15         -4.2800     3.7400    -0.1830 c3         1 7UZ      -0.075400
     13 C16         -4.5140     2.5620     0.7650 c3         1 7UZ      -0.079900
     14 C17         -4.1250     1.2590     0.0650 c3         1 7UZ      -0.072400
     15 H4          -0.4910     0.8960    -1.8680 hc         1 7UZ       0.027700
     16 H8          -2.7990    -0.0750    -1.9610 hc         1 7UZ       0.029200
     17 H8A         -2.5060    -0.8330    -0.3890 hc         1 7UZ       0.029200
     18 H10         -2.0440     1.4420     0.5650 hc         1 7UZ       0.106700
     19 H13         -1.3650     2.5270    -1.5480 hc         1 7UZ       0.035200
     20 H13A        -3.0200     2.3620    -2.1620 hc         1 7UZ       0.035200
     21 H14         -2.1980     3.9170     0.3170 hc         1 7UZ       0.021700
     22 H14A        -2.6370     4.6250    -1.2470 hc         1 7UZ       0.021700
     23 H15         -4.8840     3.6110    -1.0730 hc         1 7UZ       0.011700
     24 H15A        -4.5540     4.6620     0.3150 hc         1 7UZ       0.011700
     25 H16         -3.9070     2.6890     1.6530 hc         1 7UZ       0.021700
     26 H16A        -5.5620     2.5240     1.0390 hc         1 7UZ       0.021700
     27 H17         -4.2900     0.4260     0.7380 hc         1 7UZ       0.035200
     28 H17A        -4.7290     1.1350    -0.8260 hc         1 7UZ       0.035200
@<TRIPOS>BOND
     1     3     1 1
     2     1     4 1
     3     1     2 1
     4     5     4 1
     5     4     8 1
     6     4    15 1
     7     7     5 1
     8     5     6 1
     9     9     8 1
    10     8    16 1
    11     8    17 1
    12     9    14 1
    13     9    10 1
    14     9    18 1
    15    10    11 1
    16    10    19 1
    17    10    20 1
    18    11    12 1
    19    11    21 1
    20    11    22 1
    21    13    12 1
    22    12    23 1
    23    12    24 1
    24    13    14 1
    25    13    25 1
    26    13    26 1
    27    14    27 1
    28    14    28 1
@<TRIPOS>SUBSTRUCTURE
     1 7UZ         1 TEMP              0 ****  ****    0 ROOT
