@<TRIPOS>MOLECULE
7UZ
   28    28     1     0     0
SMALL
bcc


@<TRIPOS>ATOM
      1 C1         -0.1550   -0.3040    0.2740 c         1 7UZ      0.927600
      2 O2          0.5360    0.6620    0.7370 o         1 7UZ     -0.888050
      3 O3         -0.4510   -1.2990    1.0010 o         1 7UZ     -0.888050
      4 C4         -0.7100   -0.1560   -1.1550 c3        1 7UZ     -0.259700
      5 C5         -0.3970   -1.2980   -2.1360 c         1 7UZ      0.927600
      6 O6          0.7640   -1.3690   -2.6480 o         1 7UZ     -0.888050
      7 O7         -1.3220   -2.0900   -2.5050 o         1 7UZ     -0.888050
      8 C8         -2.2130    0.0570   -1.0730 c3        1 7UZ     -0.039400
      9 C10        -2.5780    1.3850   -0.4210 c3        1 7UZ     -0.077700
     10 C13        -2.4790    2.5330   -1.4150 c3        1 7UZ     -0.069400
     11 C14        -2.8690    3.8540   -0.7820 c3        1 7UZ     -0.073400
     12 C15        -4.2620    3.7910   -0.1900 c3        1 7UZ     -0.067400
     13 C16        -4.3790    2.6480    0.7970 c3        1 7UZ     -0.073400
     14 C17        -3.9820    1.3290    0.1660 c3        1 7UZ     -0.069400
     15 H4         -0.2290    0.7640   -1.5910 hc        1 7UZ      0.022700
     16 H8         -2.6420   -0.7890   -0.4740 hc        1 7UZ      0.036200
     17 H8A        -2.6620    0.0010   -2.0990 hc        1 7UZ      0.036200
     18 H10        -1.8390    1.5680    0.4140 hc        1 7UZ      0.094700
     19 H13        -3.1450    2.3310   -2.2940 hc        1 7UZ      0.035450
     20 H13A       -1.4250    2.5910   -1.7920 hc        1 7UZ      0.035450
     21 H14        -2.8250    4.6730   -1.5470 hc        1 7UZ      0.019700
     22 H14A       -2.1320    4.1060    0.0260 hc        1 7UZ      0.019700
     23 H15        -4.5040    4.7610    0.3200 hc        1 7UZ      0.008200
     24 H15A       -5.0110    3.6500   -1.0140 hc        1 7UZ      0.008200
     25 H16        -5.4320    2.5890    1.1780 hc        1 7UZ      0.019700
     26 H16A       -3.7130    2.8500    1.6770 hc        1 7UZ      0.019700
     27 H17        -4.0220    0.5190    0.9400 hc        1 7UZ      0.035450
     28 H17A       -4.7150    1.0640   -0.6400 hc        1 7UZ      0.035450
@<TRIPOS>BOND
     1    1    2 1   
     2    1    3 1   
     3    1    4 1   
     4    4    5 1   
     5    4    8 1   
     6    4   15 1   
     7    5    6 1   
     8    5    7 1   
     9    8    9 1   
    10    8   16 1   
    11    8   17 1   
    12    9   10 1   
    13    9   14 1   
    14    9   18 1   
    15   10   11 1   
    16   10   19 1   
    17   10   20 1   
    18   11   12 1   
    19   11   21 1   
    20   11   22 1   
    21   12   13 1   
    22   12   23 1   
    23   12   24 1   
    24   13   14 1   
    25   13   25 1   
    26   13   26 1   
    27   14   27 1   
    28   14   28 1   
@<TRIPOS>SUBSTRUCTURE
     1 7UZ         1 TEMP              0 ****  ****    0 ROOT
