@<TRIPOS>MOLECULE
molecule
   28    29     1     0     0
SMALL
bcc


@<TRIPOS>ATOM
      1 C7           1.5070     0.0000     0.0000 c3         1 7V3       0.222100
      2 C4B          2.9270    -0.0000     4.0290 ca         1 7V3      -0.084000
      3 C5B          2.5070     1.1800     3.4440 ca         1 7V3      -0.103000
      4 C3B          2.8940    -1.1790     3.3080 ca         1 7V3      -0.103000
      5 C6B          2.0470     1.1800     2.1400 ca         1 7V3      -0.108000
      6 C2B          2.4340    -1.1790     2.0040 ca         1 7V3      -0.108000
      7 C1B          2.0080     0.0000     1.4210 ca         1 7V3      -0.155300
      8 C4A         -2.7650     0.0000    -0.0480 ca         1 7V3       0.031400
      9 C5A         -2.0720     1.1990    -0.0290 ca         1 7V3      -0.075000
     10 C1A          0.0000     0.0000     0.0000 ca         1 7V3      -0.150300
     11 C2A         -0.6440    -1.0210    -0.6830 ca         1 7V3      -0.114500
     12 C3A         -2.1330    -1.1720     0.3360 ca         1 7V3      -0.075000
     13 N            1.9960     1.2000    -0.6920 nz         1 7V3      -0.814600
     14 C6A         -0.7450     1.2280     0.3750 ca         1 7V3      -0.114500
     15 H1           1.8680    -0.8840    -0.5110 hx         1 7V3       0.108700
     16 H3           2.5240     2.1020     4.0130 ha         1 7V3       0.157500
     17 H4           3.2150    -2.1050     3.7690 ha         1 7V3       0.157500
     18 H5           1.7410     2.1090     1.6740 ha         1 7V3       0.125000
     19 H6           2.4300    -2.0990     1.4310 ha         1 7V3       0.125000
     20 H7          -2.5720     2.1180    -0.3110 ha         1 7V3       0.166000
     21 H8          -0.0650    -1.7780    -1.1980 ha         1 7V3       0.156000
     22 H9          -2.7020    -2.0930     0.3170 ha         1 7V3       0.166000
     23 H10          1.6110     1.2330    -1.6150 hn         1 7V3       0.452133
     24 H11          2.9950     1.1680    -0.7490 hn         1 7V3       0.452133
     25 H13         -0.6020     2.2800     0.1600 ha         1 7V3       0.156000
     26 Cl          -4.4790    -0.0320    -0.5390 cl         1 7V3      -0.082400
     27 HN3          1.6600     2.0170    -0.2230 hn         1 7V3       0.452133
     28 H2           3.2870    -0.0000     5.0510 ha         1 7V3       0.159000
@<TRIPOS>BOND
     1    26     8 1
     2     8     9 ar
     3     8    12 ar
     4     9    14 ar
     5    12    11 ar
     6    14    10 ar
     7    11    10 ar
     8    10     1 1
     9    13     1 1
    10     1     7 1
    11     7     6 ar
    12     7     5 ar
    13     6     4 ar
    14     5     3 ar
    15     4     2 ar
    16     3     2 ar
    17     1    15 1
    18     2    28 1
    19     3    16 1
    20     4    17 1
    21     5    18 1
    22     6    19 1
    23     9    20 1
    24    11    21 1
    25    12    22 1
    26    13    23 1
    27    13    24 1
    28    14    25 1
    29    27    13 1
@<TRIPOS>SUBSTRUCTURE
     1 7V3         1 TEMP              0 ****  ****    0 ROOT
