@<TRIPOS>MOLECULE
molecule
   53    55     1     0     0
SMALL
bcc


@<TRIPOS>ATOM
      1 C10          0.0000     0.0000     0.0000 c3         1 7V7       0.166800
      2 C13         -2.3490    -1.5430    -0.8470 c3         1 7V7      -0.037100
      3 C15         -4.6080    -0.5200    -1.1790 ca         1 7V7      -0.124500
      4 C17         -6.6000    -1.8480    -1.1270 ca         1 7V7      -0.132000
      5 C20          4.2390     1.0000     1.9880 ca         1 7V7       0.044600
      6 C21          4.2330     2.2400     1.3610 ca         1 7V7      -0.138000
      7 C22          4.9600     3.2860     1.8940 ca         1 7V7      -0.119000
      8 C24          5.7050     1.8670     3.6760 ca         1 7V7      -0.119000
      9 C03          5.6290    -1.2550     1.0650 c3         1 7V7      -0.160400
     10 C04          6.1060    -2.4900     0.2980 c3         1 7V7      -0.078100
     11 C06          2.0350     0.0000     1.4460 c3         1 7V7       0.126700
     12 C07          1.4700    -1.2220     2.1760 c3         1 7V7      -0.100400
     13 C08         -0.0590    -1.1860     2.1120 c3         1 7V7       0.166800
     14 C11          1.5310     0.0000     0.0000 c3         1 7V7      -0.100400
     15 C14         -3.8480    -1.6520    -0.9490 ca         1 7V7      -0.084300
     16 C16         -5.9840    -0.6190    -1.2670 ca         1 7V7      -0.126500
     17 C18         -5.8380    -2.9820    -0.9080 ca         1 7V7      -0.126500
     18 C19         -4.4630    -2.8820    -0.8150 ca         1 7V7      -0.124500
     19 C23          5.6950     3.1000     3.0510 ca         1 7V7      -0.131000
     20 C25          4.9790     0.8170     3.1490 ca         1 7V7      -0.138000
     21 N05          3.5000    -0.0600     1.4530 n          1 7V7      -0.403000
     22 N09         -0.4920    -1.1880     0.7090 n3         1 7V7      -0.726600
     23 O01          3.4970    -2.0060     0.3890 o          1 7V7      -0.597100
     24 H102        -0.3590     0.8910     0.5000 h1         1 7V7       0.032700
     25 H101        -0.3590    -0.0170    -1.0220 h1         1 7V7       0.032700
     26 H131        -2.0030    -0.7200    -1.4610 hc         1 7V7       0.057200
     27 H132        -1.8960    -2.4650    -1.1910 hc         1 7V7       0.057200
     28 H171        -7.6790    -1.9250    -1.1980 ha         1 7V7       0.128000
     29 H211         3.6570     2.3860     0.4550 ha         1 7V7       0.139500
     30 H221         4.9550     4.2530     1.4060 ha         1 7V7       0.134000
     31 H241         6.2820     1.7250     4.5820 ha         1 7V7       0.134000
     32 H031         5.8840    -1.3610     2.1130 hc         1 7V7       0.062700
     33 H032         6.1110    -0.3720     0.6640 hc         1 7V7       0.062700
     34 H043         5.8300    -2.3960    -0.7450 hc         1 7V7       0.042700
     35 H041         5.6430    -3.3760     0.7150 hc         1 7V7       0.042700
     36 H042         7.1830    -2.5730     0.3800 hc         1 7V7       0.042700
     37 H061         1.7030     0.9030     1.9430 h1         1 7V7       0.057700
     38 H072         1.7880    -1.2020     3.2110 hc         1 7V7       0.067700
     39 H071         1.8300    -2.1250     1.6980 hc         1 7V7       0.067700
     40 H082        -0.4180    -0.2870     2.5980 h1         1 7V7       0.032700
     41 H081        -0.4600    -2.0590     2.6130 h1         1 7V7       0.032700
     42 H112         1.8910     0.8860    -0.5080 hc         1 7V7       0.067700
     43 H111         1.8910    -0.8860    -0.5080 hc         1 7V7       0.067700
     44 H161        -6.5810     0.2680    -1.4430 ha         1 7V7       0.128500
     45 H181        -6.3200    -3.9460    -0.8000 ha         1 7V7       0.128500
     46 H191        -3.8660    -3.7700    -0.6430 ha         1 7V7       0.130500
     47 H231         6.2650     3.9210     3.4670 ha         1 7V7       0.133000
     48 H251         4.9860    -0.1480     3.6400 ha         1 7V7       0.139500
     49 C12         -1.9530    -1.2940     0.6100 c3         1 7V7       0.167800
     50 C02          4.1320    -1.1350     0.9440 c          1 7V7       0.667100
     51 H151        -4.1260     0.4440    -1.2890 ha         1 7V7       0.130500
     52 H122        -2.4060    -0.3720     0.9540 h1         1 7V7       0.036200
     53 H121        -2.2980    -2.1170     1.2230 h1         1 7V7       0.036200
@<TRIPOS>BOND
     1    16     4 ar
     2    16     3 ar
     3     4    17 ar
     4     3    15 ar
     5    17    18 ar
     6    15    18 ar
     7    15     2 1
     8    49     2 1
     9    49    22 1
    10    13    22 1
    11    13    12 1
    12    22     1 1
    13     1    14 1
    14    23    50 2
    15    12    11 1
    16    11    14 1
    17    11    21 1
    18    50    21 1
    19    50     9 1
    20    21     5 1
    21    10     9 1
    22     5     6 ar
    23     5    20 ar
    24     6     7 ar
    25    20     8 ar
    26     7    19 ar
    27     8    19 ar
    28     1    24 1
    29     1    25 1
    30     2    26 1
    31     2    27 1
    32     3    51 1
    33     4    28 1
    34     6    29 1
    35     7    30 1
    36     8    31 1
    37     9    32 1
    38     9    33 1
    39    10    34 1
    40    10    35 1
    41    10    36 1
    42    11    37 1
    43    12    38 1
    44    12    39 1
    45    13    40 1
    46    13    41 1
    47    14    42 1
    48    14    43 1
    49    49    52 1
    50    49    53 1
    51    16    44 1
    52    17    45 1
    53    18    46 1
    54    19    47 1
    55    20    48 1
@<TRIPOS>SUBSTRUCTURE
     1 7V7         1 TEMP              0 ****  ****    0 ROOT
