@<TRIPOS>MOLECULE
molecule
   54    54     1     0     0
SMALL
bcc


@<TRIPOS>ATOM
      1 O8           0.0000     0.0000     0.0000 o          1 7V9      -0.592100
      2 P            1.4300     5.0050    -6.7670 p5         1 7V9       1.180900
      3 C4           1.0340    -0.0050    -4.9040 c          1 7V9       0.645100
      4 C2           2.5090     1.1990    -6.4930 c3         1 7V9      -0.071000
      5 O1P          0.8580     5.3530    -5.3020 o          1 7V9      -0.910500
      6 O2P          2.4690     6.1470    -7.2230 o          1 7V9      -0.910500
      7 O3P          2.1810     3.5820    -6.7250 os         1 7V9      -0.585200
      8 C1           1.5040     2.3520    -6.4580 c3         1 7V9       0.229400
      9 CE1          3.1590     1.1320    -7.8760 c3         1 7V9      -0.067100
     10 CE2          3.5870     1.4290    -5.4330 c3         1 7V9      -0.067100
     11 C3           1.7840    -0.1180    -6.2060 c3         1 7V9       0.088100
     12 O3           0.8640    -0.3950    -7.2630 oh         1 7V9      -0.550800
     13 O4          -0.1750     0.0860    -4.9060 o          1 7V9      -0.579100
     14 N5           1.7070    -0.0050    -3.7360 ns         1 7V9      -0.603900
     15 C6           0.9730    -0.0030    -2.4670 c3         1 7V9       0.130000
     16 C7           1.9660    -0.0020    -1.3040 c3         1 7V9      -0.174400
     17 C8           1.2130     0.0000     0.0000 c          1 7V9       0.665100
     18 N9           1.8860     0.0000     1.1680 ns         1 7V9      -0.599900
     19 C10          1.1520     0.0020     2.4360 c3         1 7V9       0.127000
     20 C11          2.1460     0.0020     3.6000 c3         1 7V9      -0.007300
     21 S12          1.2390     0.0040     5.1670 ss         1 7V9      -0.268700
     22 C13          2.5890     0.0050     6.3000 c          1 7V9       0.601300
     23 O13          3.7310     0.0040     5.8860 o          1 7V9      -0.531100
     24 C14          2.3310     0.0060     7.7550 ca         1 7V9      -0.284900
     25 C15          1.0240     0.0080     8.2450 ca         1 7V9       0.466200
     26 N16          0.7950     0.0090     9.5410 nb         1 7V9      -0.698000
     27 C17          1.7760     0.0090    10.4230 ca         1 7V9       0.441200
     28 C18          3.1000     0.0080    10.0190 ca         1 7V9      -0.273300
     29 C19          3.3940     0.0010     8.6670 ca         1 7V9      -0.035000
     30 H3           0.7410     2.1890    -7.2090 h1         1 7V9       0.031200
     31 H4           1.0430     2.3990    -5.4790 h1         1 7V9       0.031200
     32 H5           3.8490     1.9590    -7.9910 hc         1 7V9       0.028367
     33 H6           3.6960     0.1970    -7.9780 hc         1 7V9       0.028367
     34 H7           2.3920     1.1930    -8.6390 hc         1 7V9       0.028367
     35 H8           3.1490     1.9190    -4.5720 hc         1 7V9       0.028367
     36 H9           4.0060     0.4760    -5.1310 hc         1 7V9       0.028367
     37 H10          4.3710     2.0540    -5.8440 hc         1 7V9       0.028367
     38 H11          2.5070    -0.9220    -6.1370 h1         1 7V9       0.006700
     39 H12          0.8260    -1.3260    -7.4110 ho         1 7V9       0.372000
     40 H13          2.7060    -0.0560    -3.7350 hn         1 7V9       0.308500
     41 H14          0.3500    -0.8870    -2.4100 h1         1 7V9       0.068700
     42 H15          0.3510     0.8820    -2.4110 h1         1 7V9       0.068700
     43 H16          2.5880    -0.8870    -1.3600 hc         1 7V9       0.063200
     44 H17          2.5900     0.8820    -1.3620 hc         1 7V9       0.063200
     45 H18          2.8870    -0.0010     1.1690 hn         1 7V9       0.311500
     46 H19          0.5300     0.8870     2.4930 h1         1 7V9       0.064200
     47 H20          0.5290    -0.8820     2.4940 h1         1 7V9       0.064200
     48 H21          2.7690    -0.8830     3.5440 h1         1 7V9       0.078700
     49 H22          2.7700     0.8860     3.5420 h1         1 7V9       0.078700
     50 H25          0.1920     0.0080     7.5520 h4         1 7V9       0.044100
     51 H26          1.5430     0.0130    11.4810 h4         1 7V9       0.021100
     52 H27          3.8970     0.0060    10.7520 ha         1 7V9       0.140000
     53 H28          4.4210    -0.0000     8.3230 ha         1 7V9       0.159000
     54 O1           0.3080     4.9330    -7.7300 o          1 7V9      -0.910500
@<TRIPOS>BOND
     1     1    17 2   
     2     2     5 1   
     3     2     6 1   
     4     2     7 1   
     5     3    11 1   
     6     3    13 2   
     7     3    14 1   
     8     4     8 1   
     9     4     9 1   
    10     4    10 1   
    11     4    11 1   
    12     7     8 1   
    13    11    12 1   
    14    14    15 1   
    15    15    16 1   
    16    16    17 1   
    17    17    18 1   
    18    18    19 1   
    19    19    20 1   
    20    20    21 1   
    21    21    22 1   
    22    22    23 2   
    23    22    24 1   
    24    24    25 ar  
    25    24    29 ar  
    26    25    26 ar  
    27    26    27 ar  
    28    27    28 ar  
    29    28    29 ar  
    30     8    30 1   
    31     8    31 1   
    32     9    32 1   
    33     9    33 1   
    34     9    34 1   
    35    10    35 1   
    36    10    36 1   
    37    10    37 1   
    38    11    38 1   
    39    12    39 1   
    40    14    40 1   
    41    15    41 1   
    42    15    42 1   
    43    16    43 1   
    44    16    44 1   
    45    18    45 1   
    46    19    46 1   
    47    19    47 1   
    48    20    48 1   
    49    20    49 1   
    50    25    50 1   
    51    27    51 1   
    52    28    52 1   
    53    29    53 1   
    54     2    54 1   
@<TRIPOS>SUBSTRUCTURE
     1 7V9         1 TEMP              0 ****  ****    0 ROOT
