@<TRIPOS>MOLECULE
7VA
   47    50     1     0     0
SMALL
bcc


@<TRIPOS>ATOM
      1 C10          0.0000     0.0000     0.0000 ca         1 7VA      -0.044000
      2 C13          1.3900     0.0090     2.3940 ca         1 7VA      -0.175000
      3 C17         -0.8110     0.0220     5.9690 cc         1 7VA       0.186800
      4 C20         -2.0660    -0.6810     7.5990 ca         1 7VA       0.019400
      5 C22         -2.8430     1.3840     8.5880 ca         1 7VA      -0.148000
      6 C24         -3.5270    -0.7390     9.4940 ca         1 7VA      -0.219000
      7 C28         -5.0050     0.4800    11.3980 c3         1 7VA       0.244700
      8 N01          2.6540     2.0410    -4.0340 ns         1 7VA      -0.164500
      9 C02          3.2470     1.4810    -2.9930 c          1 7VA       0.612500
     10 C03          2.3880     1.4450    -1.7470 c3         1 7VA      -0.025600
     11 S04          0.8390     2.2390    -2.2940 ss         1 7VA      -0.315700
     12 C05          1.4120     2.5220    -3.9480 c          1 7VA       0.675100
     13 O06          0.7850     3.0540    -4.8430 o          1 7VA      -0.565500
     14 C08          2.1340     0.0020    -1.3070 c3         1 7VA       0.067900
     15 C09          1.3820     0.0000     0.0000 ca         1 7VA      -0.159300
     16 C11         -0.6910     0.0040     1.1960 ca         1 7VA      -0.175000
     17 C12          0.0030     0.0090     2.3980 ca         1 7VA       0.159100
     18 C14          2.0760     0.0000     1.1960 ca         1 7VA      -0.044000
     19 O15         -0.6760     0.0130     3.5750 os         1 7VA      -0.298900
     20 C16          0.1040     0.0180     4.7730 c3         1 7VA       0.215100
     21 N18         -1.2910     1.1390     6.5800 na         1 7VA       0.318700
     22 C19         -2.0940     0.7240     7.6250 ca         1 7VA      -0.213200
     23 N21         -1.2640    -1.0430     6.5640 nd         1 7VA      -0.480100
     24 C23         -3.5570     0.6520     9.5200 ca         1 7VA       0.166100
     25 C25         -2.7940    -1.4020     8.5500 ca         1 7VA       0.012000
     26 O27         -4.2910     1.2950    10.4660 os         1 7VA      -0.309900
     27 H1          -0.5410    -0.0030    -0.9380 ha         1 7VA       0.112500
     28 H2           1.9350     0.0110     3.3310 ha         1 7VA       0.121000
     29 H3          -2.8680     2.4670     8.6120 ha         1 7VA       0.116000
     30 H4          -4.0900    -1.3020    10.2280 ha         1 7VA       0.122000
     31 H5           0.0640     2.6700     6.1390 h1         1 7VA       0.023700
     32 H6          -1.4190     3.1950     6.9480 h1         1 7VA       0.023700
     33 H7          -1.4580     2.7370     5.2400 h1         1 7VA       0.023700
     34 H8          -4.3060    -0.1420    11.9440 h1         1 7VA      -0.002300
     35 H9          -5.5430     1.1130    12.0930 h1         1 7VA      -0.002300
     36 H10         -5.7070    -0.1490    10.8640 h1         1 7VA      -0.002300
     37 H11          3.1450     2.1050    -4.9030 hn         1 7VA       0.197500
     38 H12          1.5470    -0.5080    -2.0620 hc         1 7VA       0.037200
     39 H13          3.0810    -0.5090    -1.1800 hc         1 7VA       0.037200
     40 H14         -1.7750     0.0040     1.1960 ha         1 7VA       0.121000
     41 H15          3.1600     0.0000     1.1920 ha         1 7VA       0.112500
     42 H16          0.7290     0.9030     4.7930 h1         1 7VA       0.013200
     43 H17          0.7300    -0.8660     4.8000 h1         1 7VA       0.013200
     44 H18         -2.7780    -2.4850     8.5380 ha         1 7VA       0.108000
     45 H19          2.8480     2.0180    -0.9510 h1         1 7VA       0.095700
     46 C26         -1.0080     2.5260     6.2020 c3         1 7VA      -0.005400
     47 O07          4.3740     1.0370    -3.0320 o          1 7VA      -0.605500
@<TRIPOS>BOND
     1     1    15 ar  
     2     1    16 ar  
     3     1    27 1   
     4     2    17 ar  
     5     2    18 ar  
     6     2    28 1   
     7     3    20 1   
     8     3    21 1   
     9     3    23 2   
    10     4    22 ar  
    11     4    23 1   
    12     4    25 ar  
    13     5    22 ar  
    14     5    24 ar  
    15     5    29 1   
    16     6    24 ar  
    17     6    25 ar  
    18     6    30 1   
    19     7    26 1   
    20     7    34 1   
    21     7    35 1   
    22     7    36 1   
    23     8     9 1   
    24     8    12 1   
    25     8    37 1   
    26     9    10 1   
    27     9    47 2   
    28    10    11 1   
    29    10    14 1   
    30    10    45 1   
    31    11    12 1   
    32    12    13 2   
    33    14    15 1   
    34    14    38 1   
    35    14    39 1   
    36    15    18 ar  
    37    16    17 ar  
    38    16    40 1   
    39    17    19 1   
    40    18    41 1   
    41    19    20 1   
    42    20    42 1   
    43    20    43 1   
    44    21    22 1   
    45    21    46 1   
    46    24    26 1   
    47    25    44 1   
    48    31    46 1   
    49    32    46 1   
    50    33    46 1   
@<TRIPOS>SUBSTRUCTURE
     1 7VA         1 TEMP              0 ****  ****    0 ROOT
