@<TRIPOS>MOLECULE
molecule
   47    50     1     0     0
SMALL
bcc


@<TRIPOS>ATOM
      1 C10          0.0000     0.0000     0.0000 ca         1 7VA      -0.077500
      2 C13          1.3900     0.0090     2.3940 ca         1 7VA      -0.188500
      3 C17         -0.8110     0.0220     5.9690 cc         1 7VA       0.404800
      4 C20         -2.0660    -0.6810     7.5990 ca         1 7VA       0.053400
      5 C22         -2.8430     1.3840     8.5880 ca         1 7VA      -0.174000
      6 C24         -3.5270    -0.7390     9.4940 ca         1 7VA      -0.229000
      7 C28         -5.0050     0.4800    11.3980 c3         1 7VA       0.129700
      8 N01          2.6540     2.0410    -4.0340 ns         1 7VA      -0.583500
      9 C02          3.2470     1.4810    -2.9930 c          1 7VA       0.702500
     10 C03          2.3880     1.4450    -1.7470 c3         1 7VA      -0.067600
     11 S04          0.8390     2.2390    -2.2940 ss         1 7VA      -0.245700
     12 C05          1.4120     2.5220    -3.9480 c          1 7VA       0.739100
     13 O06          0.7850     3.0540    -4.8430 o          1 7VA      -0.542500
     14 C08          2.1340     0.0020    -1.3070 c3         1 7VA      -0.006100
     15 C09          1.3820     0.0000     0.0000 ca         1 7VA      -0.142300
     16 C11         -0.6910     0.0040     1.1960 ca         1 7VA      -0.188500
     17 C12          0.0030     0.0090     2.3980 ca         1 7VA       0.149100
     18 C14          2.0760     0.0000     1.1960 ca         1 7VA      -0.077500
     19 O15         -0.6760     0.0130     3.5750 os         1 7VA      -0.319900
     20 C16          0.1040     0.0180     4.7730 c3         1 7VA       0.143100
     21 N18         -1.2910     1.1390     6.5800 na         1 7VA      -0.147300
     22 C19         -2.0940     0.7240     7.6250 ca         1 7VA      -0.046200
     23 N21         -1.2640    -1.0430     6.5640 nd         1 7VA      -0.570100
     24 C23         -3.5570     0.6520     9.5200 ca         1 7VA       0.159100
     25 C25         -2.7940    -1.4020     8.5500 ca         1 7VA      -0.026000
     26 O27         -4.2910     1.2950    10.4660 os         1 7VA      -0.328900
     27 H1          -0.5410    -0.0030    -0.9380 ha         1 7VA       0.140000
     28 H2           1.9350     0.0110     3.3310 ha         1 7VA       0.143500
     29 H3          -2.8680     2.4670     8.6120 ha         1 7VA       0.141000
     30 H4          -4.0900    -1.3020    10.2280 ha         1 7VA       0.139000
     31 H5           0.0640     2.6700     6.1390 h1         1 7VA       0.054367
     32 H6          -1.4190     3.1950     6.9480 h1         1 7VA       0.054367
     33 H7          -1.4580     2.7370     5.2400 h1         1 7VA       0.054367
     34 H8          -4.3060    -0.1420    11.9440 h1         1 7VA       0.042367
     35 H9          -5.5430     1.1130    12.0930 h1         1 7VA       0.042367
     36 H10         -5.7070    -0.1490    10.8640 h1         1 7VA       0.042367
     37 H11          3.1450     2.1050    -4.9030 hn         1 7VA       0.350500
     38 H12          1.5470    -0.5080    -2.0620 hc         1 7VA       0.071200
     39 H13          3.0810    -0.5090    -1.1800 hc         1 7VA       0.071200
     40 H14         -1.7750     0.0040     1.1960 ha         1 7VA       0.143500
     41 H15          3.1600     0.0000     1.1920 ha         1 7VA       0.140000
     42 H16          0.7290     0.9030     4.7930 h1         1 7VA       0.057200
     43 H17          0.7300    -0.8660     4.8000 h1         1 7VA       0.057200
     44 H18         -2.7780    -2.4850     8.5380 ha         1 7VA       0.145000
     45 H19          2.8480     2.0180    -0.9510 h1         1 7VA       0.122700
     46 C26         -1.0080     2.5260     6.2020 c3         1 7VA       0.037600
     47 O07          4.3740     1.0370    -3.0320 o          1 7VA      -0.573500
@<TRIPOS>BOND
     1    26     7 1
     2    26    24 1
     3    24     5 ar
     4    24     6 ar
     5     5    22 ar
     6     6    25 ar
     7    46    21 1
     8    22    21 1
     9    22     4 ar
    10    21     3 1
    11    25     4 ar
    12     4    23 1
    13     3    23 2
    14     3    20 1
    15    20    19 1
    16    19    17 1
    17    17    16 ar
    18    17     2 ar
    19    16     1 ar
    20     2    18 ar
    21     1    15 ar
    22    18    15 ar
    23    15    14 1
    24    11    10 1
    25    11    12 1
    26    14    10 1
    27    10     9 1
    28    13    12 2
    29    12     8 1
    30     9     8 1
    31     9    47 2
    32     1    27 1
    33     2    28 1
    34     5    29 1
    35     6    30 1
    36    46    31 1
    37    46    32 1
    38    46    33 1
    39     7    34 1
    40     7    35 1
    41     7    36 1
    42     8    37 1
    43    14    38 1
    44    14    39 1
    45    16    40 1
    46    18    41 1
    47    20    42 1
    48    20    43 1
    49    25    44 1
    50    10    45 1
@<TRIPOS>SUBSTRUCTURE
     1 7VA         1 TEMP              0 ****  ****    0 ROOT
