@<TRIPOS>MOLECULE
molecule
   35    37     1     0     0
SMALL
bcc


@<TRIPOS>ATOM
      1 C4           0.0000     0.0000     0.0000 ca         1 7VC       0.444200
      2 C5           3.5570    -0.0050     1.2430 cp         1 7VC      -0.066000
      3 C6           4.2730    -0.9280     0.4790 ca         1 7VC      -0.090000
      4 C10          5.6180     0.9010     2.0770 ca         1 7VC      -0.187000
      5 C1          -0.0980    -0.0040     2.3130 ca         1 7VC       0.456600
      6 C2           2.0780     0.0000     1.2070 cp         1 7VC       0.027000
      7 C12          1.9360    -0.0260     3.6590 ca         1 7VC      -0.078000
      8 C14         -0.8570    -0.0050     3.4950 ca         1 7VC      -0.212300
      9 C16         -0.2320    -0.0150     7.0910 c3         1 7VC       0.128700
     10 C8           6.3260    -0.0210     1.3190 ca         1 7VC       0.121100
     11 C7           5.6500    -0.9330     0.5180 ca         1 7VC      -0.099300
     12 C9           4.2400     0.9090     2.0450 ca         1 7VC      -0.098000
     13 C3           1.3890     0.0000     0.0000 ca         1 7VC      -0.264300
     14 N           -0.6920     0.0000     1.1150 nb         1 7VC      -0.690000
     15 C            1.3160    -0.0100     2.4030 ca         1 7VC      -0.179300
     16 C13          1.1780    -0.0150     4.7890 ca         1 7VC      -0.206000
     17 C15         -0.2180    -0.0090     4.7140 ca         1 7VC       0.146100
     18 O           -0.9530    -0.0090     5.8570 os         1 7VC      -0.324900
     19 H1          -0.5270    -0.0000    -0.9470 h4         1 7VC       0.023100
     20 H2           3.7450    -1.6720    -0.1060 ha         1 7VC       0.142000
     21 H3           6.1490     1.6110     2.7000 ha         1 7VC       0.138000
     22 H4           6.9900    -2.5790     0.3490 hc         1 7VC       0.047033
     23 H5           5.7330    -2.5240    -0.8940 hc         1 7VC       0.047033
     24 H6           7.0990    -1.4030    -0.9690 hc         1 7VC       0.047033
     25 H7           3.0170    -0.0300     3.7300 ha         1 7VC       0.143000
     26 H8          -1.9390    -0.0010     3.4480 ha         1 7VC       0.164000
     27 H9           0.3950     0.8670     7.1470 h1         1 7VC       0.041700
     28 H10          0.3880    -0.9020     7.1420 h1         1 7VC       0.041700
     29 H11         -0.9310    -0.0140     7.9180 h1         1 7VC       0.041700
     30 H12          7.9770    -0.0700     2.2480 ho         1 7VC       0.421000
     31 H13          3.6880     1.6280     2.6380 ha         1 7VC       0.142000
     32 H14          1.9330    -0.0000    -0.9370 ha         1 7VC       0.142000
     33 H15          1.6610    -0.0180     5.7590 ha         1 7VC       0.136000
     34 C11          6.4230    -1.9300    -0.3070 c3         1 7VC      -0.037800
     35 O1           7.6850    -0.0270     1.3520 oh         1 7VC      -0.509100
@<TRIPOS>BOND
     1    34    11 1   
     2    35    10 1   
     3    11    10 ar  
     4    11     3 ar  
     5    10     4 ar  
     6     3     2 ar  
     7     4    12 ar  
     8     2    12 ar  
     9     2     6 1   
    10    13     6 ar  
    11    13     1 ar  
    12     6    15 ar  
    13     1    14 ar  
    14    15     7 ar  
    15    15     5 ar  
    16     7    16 ar  
    17    14     5 ar  
    18     5     8 ar  
    19    16    17 ar  
    20     8    17 ar  
    21    17    18 1   
    22    18     9 1   
    23     1    19 1   
    24     3    20 1   
    25     4    21 1   
    26    34    22 1   
    27    34    23 1   
    28    34    24 1   
    29     7    25 1   
    30     8    26 1   
    31     9    27 1   
    32     9    28 1   
    33     9    29 1   
    34    35    30 1   
    35    12    31 1   
    36    13    32 1   
    37    16    33 1   
@<TRIPOS>SUBSTRUCTURE
     1 7VC         1 TEMP              0 ****  ****    0 ROOT
