@<TRIPOS>MOLECULE
molecule
   13    12     1     0     0
SMALL
bcc


@<TRIPOS>ATOM
      1 P1           0.0000     0.0000     0.0000 p5         1 7VD       1.051700
      2 C1           1.8220     0.0000     0.0000 c3         1 7VD      -0.327600
      3 O2          -0.5360     0.0000     1.5180 o          1 7VD      -0.912500
      4 O3          -0.4940     1.2080    -0.6970 o          1 7VD      -0.912500
      5 O4          -0.5380    -1.3150    -0.7580 o          1 7VD      -0.912500
      6 C6           2.3250     1.2870     0.6000 c          1 7VD       0.582100
      7 O7           1.5410     2.1190     0.9870 o          1 7VD      -0.493100
      8 C8           3.8070     1.5370     0.7160 c3         1 7VD      -0.212100
      9 H1           2.1830    -0.0890    -1.0170 hc         1 7VD       0.037200
     10 H2           2.1830    -0.8370     0.5860 hc         1 7VD       0.037200
     11 H5           3.9790     2.4030     1.3420 hc         1 7VD       0.021033
     12 H6           4.2210     1.7150    -0.2690 hc         1 7VD       0.021033
     13 H7           4.2860     0.6710     1.1580 hc         1 7VD       0.021033
@<TRIPOS>BOND
     1     7     6 2
     2     6     8 1
     3     6     2 1
     4     4     1 1
     5     2     1 1
     6     3     1 1
     7     1     5 1
     8     2     9 1
     9     2    10 1
    10     8    11 1
    11     8    12 1
    12     8    13 1
@<TRIPOS>SUBSTRUCTURE
     1 7VD         1 TEMP              0 ****  ****    0 ROOT
