@<TRIPOS>MOLECULE
molecule
   32    34     1     0     0
SMALL
bcc


@<TRIPOS>ATOM
      1 O1           0.0000     0.0000     0.0000 oh         1 7VF      -0.510100
      2 C8           1.3570     0.0000     0.0000 ca         1 7VF       0.123100
      3 C7           2.0510     0.0000     1.2040 ca         1 7VF      -0.099300
      4 C11          1.2950    -0.0000     2.5070 c3         1 7VF      -0.039800
      5 C6           3.4290     0.0000     1.2070 ca         1 7VF      -0.090000
      6 C10          2.0500    -0.0050    -1.2040 ca         1 7VF      -0.186000
      7 C9           3.4290    -0.0060    -1.2080 ca         1 7VF      -0.097000
      8 C5           4.1280    -0.0000    -0.0010 cp         1 7VF      -0.068000
      9 C2           5.6090    -0.0000    -0.0010 cp         1 7VF       0.020000
     10 C3           6.3260     0.9070     0.7680 ca         1 7VF      -0.255300
     11 C4           7.7150     0.8800     0.7470 ca         1 7VF       0.438200
     12 N            8.3790     0.0170     0.0150 nb         1 7VF      -0.686000
     13 C            6.3400    -0.9300    -0.7820 ca         1 7VF      -0.155300
     14 C12          5.6890    -1.8800    -1.5800 ca         1 7VF      -0.102000
     15 C13          6.4190    -2.7600    -2.3190 ca         1 7VF      -0.150000
     16 C15          7.8160    -2.7290    -2.2920 ca         1 7VF       0.115100
     17 O            8.5220    -3.6170    -3.0380 oh         1 7VF      -0.521100
     18 C14          8.4850    -1.8070    -1.5180 ca         1 7VF      -0.197300
     19 C1           7.7550    -0.8850    -0.7510 ca         1 7VF       0.433600
     20 H1          -0.3140     0.7090    -0.5370 ho         1 7VF       0.423000
     21 H2           1.9830    -0.1810     3.3240 hc         1 7VF       0.047367
     22 H3           0.5430    -0.7800     2.4890 hc         1 7VF       0.047367
     23 H4           0.8140     0.9610     2.6460 hc         1 7VF       0.047367
     24 H5           3.9690     0.0020     2.1460 ha         1 7VF       0.142000
     25 H6           1.5060    -0.0090    -2.1410 ha         1 7VF       0.139000
     26 H7           3.9680    -0.0080    -2.1470 ha         1 7VF       0.143000
     27 H8           5.8050     1.6310     1.3830 ha         1 7VF       0.142000
     28 H9           8.2650     1.5920     1.3500 h4         1 7VF       0.024100
     29 H10          4.6060    -1.9140    -1.6090 ha         1 7VF       0.148000
     30 H11          5.9110    -3.4920    -2.9350 ha         1 7VF       0.142000
     31 H12          8.7210    -4.3770    -2.5170 ho         1 7VF       0.422000
     32 H13          9.5680    -1.7910    -1.5040 ha         1 7VF       0.160000
@<TRIPOS>BOND
     1     4     3 1
     2     1     2 1
     3     3     2 ar
     4     3     5 ar
     5     2     6 ar
     6     5     8 ar
     7     6     7 ar
     8     8     7 ar
     9     8     9 1
    10    10     9 ar
    11    10    11 ar
    12     9    13 ar
    13    11    12 ar
    14    13    14 ar
    15    13    19 ar
    16    12    19 ar
    17    14    15 ar
    18    19    18 ar
    19    15    16 ar
    20    18    16 ar
    21    16    17 1
    22     1    20 1
    23     4    21 1
    24     4    22 1
    25     4    23 1
    26     5    24 1
    27     6    25 1
    28     7    26 1
    29    10    27 1
    30    11    28 1
    31    14    29 1
    32    15    30 1
    33    17    31 1
    34    18    32 1
@<TRIPOS>SUBSTRUCTURE
     1 7VF         1 TEMP              0 ****  ****    0 ROOT
