@<TRIPOS>MOLECULE
7VJ
   20    20     1     0     0
SMALL
bcc


@<TRIPOS>ATOM
      1 N3           0.0000     0.0000     0.0000 ne         1 7VJ       0.113700
      2 O2           1.2180     0.0000     0.0000 o          1 7VJ      -0.203300
      3 C2          -0.6590     0.0000     1.1410 cc         1 7VJ      -0.266600
      4 C1          -2.1270     0.1150     1.1820 cd         1 7VJ       0.248600
      5 N2          -2.8520     0.2260     0.0290 nu         1 7VJ      -0.215000
      6 C5          -4.2980     0.4510     0.0910 c3         1 7VJ       0.161100
      7 N1          -2.7310     0.1080     2.3650 nd         1 7VJ      -0.500300
      8 C4          -2.0620     0.0020     3.4950 cc         1 7VJ       0.095800
      9 N5          -2.7640     0.0030     4.6630 nz         1 7VJ       0.190400
     10 N4          -0.7100    -0.1090     3.5600 ns         1 7VJ       0.031600
     11 C3           0.0410    -0.1230     2.4380 c          1 7VJ       0.593700
     12 O1           1.2520    -0.2280     2.4930 o          1 7VJ      -0.542500
     13 H1          -2.3950     0.1510    -0.8590 hn         1 7VJ       0.331800
     14 H2          -4.6940     0.5320    -0.9140 h1         1 7VJ       0.031367
     15 H3          -4.7710    -0.3810     0.5990 h1         1 7VJ       0.031367
     16 H4          -4.4980     1.3670     0.6340 h1         1 7VJ       0.031367
     17 H5          -2.4710     0.7760     5.2270 hn         1 7VJ       0.227467
     18 H6          -3.7410     0.0860     4.4640 hn         1 7VJ       0.227467
     19 H7          -0.2640    -0.1880     4.4520 hn         1 7VJ       0.185500
     20 H53         -2.5950    -0.8520     5.1540 hn         1 7VJ       0.227467
@<TRIPOS>BOND
     1     1     2 2   
     2     1     3 1   
     3     3     4 2   
     4     3    11 1   
     5     4     5 1   
     6     4     7 1   
     7     5     6 1   
     8     5    13 1   
     9     6    14 1   
    10     6    15 1   
    11     6    16 1   
    12     7     8 2   
    13     8     9 1   
    14     8    10 1   
    15     9    17 1   
    16     9    18 1   
    17     9    20 1   
    18    10    11 1   
    19    10    19 1   
    20    11    12 2   
@<TRIPOS>SUBSTRUCTURE
     1 7VJ         1 TEMP              0 ****  ****    0 ROOT
