@<TRIPOS>MOLECULE
molecule
   20    20     1     0     0
SMALL
bcc


@<TRIPOS>ATOM
      1 N3           0.0000     0.0000     0.0000 ne         1 7VJ      -0.005300
      2 O2           1.2180     0.0000     0.0000 o          1 7VJ      -0.140300
      3 C2          -0.6590     0.0000     1.1410 cc         1 7VJ      -0.228600
      4 C1          -2.1270     0.1150     1.1820 cd         1 7VJ       0.492600
      5 N2          -2.8520     0.2260     0.0290 nu         1 7VJ      -0.694000
      6 C5          -4.2980     0.4510     0.0910 c3         1 7VJ       0.199100
      7 N1          -2.7310     0.1080     2.3650 nd         1 7VJ      -0.667300
      8 C4          -2.0620     0.0020     3.4950 cc         1 7VJ       0.563800
      9 N5          -2.7640     0.0030     4.6630 nz         1 7VJ      -0.751600
     10 N4          -0.7100    -0.1090     3.5600 ns         1 7VJ      -0.447400
     11 C3           0.0410    -0.1230     2.4380 c          1 7VJ       0.678700
     12 O1           1.2520    -0.2280     2.4930 o          1 7VJ      -0.503500
     13 H1          -2.3950     0.1510    -0.8590 hn         1 7VJ       0.504800
     14 H2          -4.6940     0.5320    -0.9140 h1         1 7VJ       0.065033
     15 H3          -4.7710    -0.3810     0.5990 h1         1 7VJ       0.065033
     16 H4          -4.4980     1.3670     0.6340 h1         1 7VJ       0.065033
     17 H5          -2.4710     0.7760     5.2270 hn         1 7VJ       0.486467
     18 H6          -3.7410     0.0860     4.4640 hn         1 7VJ       0.486467
     19 H7          -0.2640    -0.1880     4.4520 hn         1 7VJ       0.343500
     20 H53         -2.5950    -0.8520     5.1540 hn         1 7VJ       0.486467
@<TRIPOS>BOND
     1    12    11 2
     2     1     2 2
     3     1     3 1
     4    11     3 1
     5    11    10 1
     6     3     4 2
     7    10     8 1
     8     4     7 1
     9     4     5 1
    10     8     9 1
    11     8     7 2
    12     5     6 1
    13     5    13 1
    14     6    14 1
    15     6    15 1
    16     6    16 1
    17     9    17 1
    18     9    18 1
    19    10    19 1
    20    20     9 1
@<TRIPOS>SUBSTRUCTURE
     1 7VJ         1 TEMP              0 ****  ****    0 ROOT
