@<TRIPOS>MOLECULE
molecule
   31    33     1     0     0
SMALL
bcc


@<TRIPOS>ATOM
      1 C10          0.0000     0.0000     0.0000 ca         1 7VL      -0.185000
      2 C11          3.5940     0.0000     1.1960 c3         1 7VL      -0.039800
      3 C12         -2.1350     1.8840     2.9740 ca         1 7VL      -0.103000
      4 C13         -3.1380     2.7640     3.2480 ca         1 7VL      -0.126000
      5 C14         -3.4680     1.8170     5.4280 ca         1 7VL      -0.160300
      6 C15         -3.8030     2.7300     4.4730 ca         1 7VL       0.038400
      7 C1          -2.4470     0.8860     5.1740 ca         1 7VL       0.428600
      8 C2          -0.7320    -0.0060     3.6840 cp         1 7VL       0.020000
      9 C3          -0.4310    -0.9220     4.6850 ca         1 7VL      -0.250300
     10 C4          -1.1450    -0.8950     5.8770 ca         1 7VL       0.438200
     11 C5           0.0060    -0.0060     2.4010 cp         1 7VL      -0.069000
     12 C6           1.4030    -0.0110     2.3980 ca         1 7VL      -0.090000
     13 C7           2.0870     0.0000     1.2010 ca         1 7VL      -0.099300
     14 C8           1.3890     0.0000     0.0000 ca         1 7VL       0.124100
     15 C9          -0.6900     0.0000     1.1920 ca         1 7VL      -0.098000
     16 C           -1.7700     0.9280     3.9310 ca         1 7VL      -0.150300
     17 N           -2.0980    -0.0210     6.0940 nb         1 7VL      -0.682000
     18 O            2.0680    -0.0010    -1.1770 oh         1 7VL      -0.510100
     19 H1          -0.5410     0.0020    -0.9380 ha         1 7VL       0.139000
     20 H2           3.9530     0.7350     0.4850 hc         1 7VL       0.048033
     21 H3           3.9550    -0.9810     0.9140 hc         1 7VL       0.048033
     22 H4           3.9580     0.2480     2.1860 hc         1 7VL       0.048033
     23 H5          -1.6250     1.9200     2.0190 ha         1 7VL       0.151000
     24 H6          -3.4220     3.4990     2.5050 ha         1 7VL       0.145000
     25 H7          -3.9940     1.8030     6.3740 ha         1 7VL       0.163000
     26 H8           0.3510    -1.6560     4.5350 ha         1 7VL       0.144000
     27 H9          -0.9030    -1.6130     6.6510 h4         1 7VL       0.025100
     28 H10          1.9460     0.0440     3.3330 ha         1 7VL       0.142000
     29 H11         -1.7730    -0.0000     1.1910 ha         1 7VL       0.142000
     30 H12          1.7580    -0.7080    -1.7180 ho         1 7VL       0.423000
     31 Cl          -5.0760     3.8680     4.7860 cl         1 7VL      -0.104400
@<TRIPOS>BOND
     1     2    13 1
     2    18    14 1
     3    13    14 ar
     4    13    12 ar
     5    14     1 ar
     6    12    11 ar
     7     1    15 ar
     8    11    15 ar
     9    11     8 1
    10     9     8 ar
    11     9    10 ar
    12     8    16 ar
    13    10    17 ar
    14    16     3 ar
    15    16     7 ar
    16    17     7 ar
    17     3     4 ar
    18     7     5 ar
    19     4     6 ar
    20     5     6 ar
    21     6    31 1
    22     1    19 1
    23     2    20 1
    24     2    21 1
    25     2    22 1
    26     3    23 1
    27     4    24 1
    28     5    25 1
    29     9    26 1
    30    10    27 1
    31    12    28 1
    32    15    29 1
    33    18    30 1
@<TRIPOS>SUBSTRUCTURE
     1 7VL         1 TEMP              0 ****  ****    0 ROOT
