@<TRIPOS>MOLECULE
molecule
   68    71     1     0     0
SMALL
bcc


@<TRIPOS>ATOM
      1 C4           0.0000     0.0000     0.0000 c3         1 7VM      -0.120900
      2 C5           1.5310     0.0000     0.0000 c3         1 7VM      -0.114000
      3 C6           2.0350     1.2310    -0.7080 ca         1 7VM       0.429600
      4 N1           0.0020    -1.1730     2.1500 n3         1 7VM      -0.724600
      5 C7           2.7910     2.2160    -2.6480 ca         1 7VM       0.418200
      6 C8           2.9470     3.4350    -2.0160 ca         1 7VM      -0.253300
      7 N2           2.3470     1.1650    -1.9880 nb         1 7VM      -0.689000
      8 C9           2.6240     3.5440    -0.6720 ca         1 7VM      -0.079300
      9 C10          2.7730     4.8570     0.0530 c3         1 7VM       0.158300
     10 C11          5.2110     5.5340    -0.1530 c3         1 7VM       0.084300
     11 C12          4.3510     4.4900     1.8740 c          1 7VM       0.679700
     12 N3           4.1180     4.9470     0.6280 n          1 7VM      -0.483800
     13 C13          5.6810     4.6750     2.4920 ca         1 7VM      -0.131600
     14 C14          5.7830     5.0400     3.8360 ca         1 7VM      -0.079000
     15 C15          7.0260     5.2110     4.4110 ca         1 7VM      -0.127000
     16 O1           3.4670     3.9260     2.4890 o          1 7VM      -0.605100
     17 C24          6.8370     4.4800     1.7380 ca         1 7VM      -0.119000
     18 C17          8.0800     4.6550     2.3240 ca         1 7VM       0.095100
     19 O            9.2090     4.4670     1.5920 os         1 7VM      -0.250200
     20 C18          9.9740     3.3770     1.8680 ca         1 7VM       0.131100
     21 C23         11.1940     3.2060     1.2310 ca         1 7VM      -0.179500
     22 C22         11.9700     2.0990     1.5130 ca         1 7VM      -0.094000
     23 C21         11.5310     1.1610     2.4300 ca         1 7VM      -0.160000
     24 C20         10.3150     1.3290     3.0650 ca         1 7VM      -0.094000
     25 C19          9.5380     2.4380     2.7910 ca         1 7VM      -0.179500
     26 C16          8.1720     5.0240     3.6600 ca         1 7VM      -0.131000
     27 C25          2.1590     2.4170    -0.0110 ca         1 7VM      -0.222300
     28 C3          -0.5060    -1.2200     0.7730 c3         1 7VM       0.162800
     29 C26          2.0330     0.0000     1.4460 c3         1 7VM      -0.120900
     30 C27          1.4690    -1.2200     2.1780 c3         1 7VM       0.162800
     31 C2          -0.5000     0.0130     2.8560 c3         1 7VM       0.152800
     32 C1          -2.0170    -0.0970     3.0240 c3         1 7VM       0.153800
     33 N           -2.5190     1.0900     3.7300 n7         1 7VM      -0.823200
     34 C           -3.9750     1.0190     3.9110 c3         1 7VM       0.149100
     35 H1          -0.3600     0.9030     0.4770 hc         1 7VM       0.055700
     36 H2          -0.3600    -0.0450    -1.0210 hc         1 7VM       0.055700
     37 H3           1.8910    -0.8870    -0.5060 hc         1 7VM       0.074700
     38 H5           3.0390     2.1220    -3.6990 h4         1 7VM       0.021100
     39 H6           3.3120     4.2950    -2.5640 ha         1 7VM       0.132000
     40 H7           2.0370     4.9170     0.8460 h1         1 7VM       0.068700
     41 H8           2.6220     5.6730    -0.6430 h1         1 7VM       0.068700
     42 H9           5.9180     6.0080     0.5160 h1         1 7VM       0.045700
     43 H10          4.8100     6.2720    -0.8370 h1         1 7VM       0.045700
     44 H11          5.7110     4.7550    -0.7150 h1         1 7VM       0.045700
     45 H12          4.8880     5.1860     4.4270 ha         1 7VM       0.153000
     46 H13          7.1040     5.4960     5.4530 ha         1 7VM       0.142000
     47 H14          6.7650     4.1040     0.7240 ha         1 7VM       0.155000
     48 H15         11.5390     3.9410     0.5130 ha         1 7VM       0.144000
     49 H16         12.9230     1.9650     1.0160 ha         1 7VM       0.134000
     50 H17         12.1390     0.2910     2.6480 ha         1 7VM       0.132000
     51 H18          9.9740     0.5940     3.7840 ha         1 7VM       0.134000
     52 H19          8.5850     2.5690     3.2900 ha         1 7VM       0.144000
     53 H20          9.1450     5.1600     4.1170 ha         1 7VM       0.148000
     54 H21          1.8980     2.4660     1.0400 ha         1 7VM       0.164000
     55 H22         -1.5890    -1.2130     0.7880 h1         1 7VM       0.055700
     56 H23         -0.1530    -2.1230     0.2900 h1         1 7VM       0.055700
     57 H24          1.7020     0.9040     1.9420 hc         1 7VM       0.055700
     58 H25          3.1160    -0.0460     1.4510 hc         1 7VM       0.055700
     59 H26          1.8100    -1.2120     3.2060 h1         1 7VM       0.055700
     60 H27          1.8090    -2.1240     1.6860 h1         1 7VM       0.055700
     61 H28         -0.0320     0.0780     3.8310 h1         1 7VM       0.044200
     62 H29         -0.2640     0.9020     2.2830 h1         1 7VM       0.044200
     63 H30         -2.4850    -0.1610     2.0490 h1         1 7VM       0.038700
     64 H31         -2.2530    -0.9850     3.5980 h1         1 7VM       0.038700
     65 H32         -2.0750     1.1580     4.6250 hn         1 7VM       0.350800
     66 H34         -4.2260     0.1250     4.4700 h1         1 7VM       0.029700
     67 H35         -4.4580     0.9860     2.9420 h1         1 7VM       0.029700
     68 H36         -4.3150     1.8920     4.4540 h1         1 7VM       0.029700
@<TRIPOS>BOND
     1    34    33 1   
     2    10    12 1   
     3    16    11 2   
     4    12    11 1   
     5    12     9 1   
     6    33    32 1   
     7    11    13 1   
     8     9     8 1   
     9    32    31 1   
    10     1    28 1   
    11     1     2 1   
    12    31     4 1   
    13     8    27 ar  
    14     8     6 ar  
    15    28     4 1   
    16    14    13 ar  
    17    14    15 ar  
    18    27     3 ar  
    19    13    17 ar  
    20     6     5 ar  
    21     4    30 1   
    22     3     2 1   
    23     3     7 ar  
    24     2    29 1   
    25     5     7 ar  
    26    15    26 ar  
    27    17    18 ar  
    28    29    30 1   
    29    26    18 ar  
    30    18    19 1   
    31    25    24 ar  
    32    25    20 ar  
    33    19    20 1   
    34    24    23 ar  
    35    20    21 ar  
    36    23    22 ar  
    37    21    22 ar  
    38     1    35 1   
    39     1    36 1   
    40     2    37 1   
    41     5    38 1   
    42     6    39 1   
    43     9    40 1   
    44     9    41 1   
    45    10    42 1   
    46    10    43 1   
    47    10    44 1   
    48    14    45 1   
    49    15    46 1   
    50    17    47 1   
    51    21    48 1   
    52    22    49 1   
    53    23    50 1   
    54    24    51 1   
    55    25    52 1   
    56    26    53 1   
    57    27    54 1   
    58    28    55 1   
    59    28    56 1   
    60    29    57 1   
    61    29    58 1   
    62    30    59 1   
    63    30    60 1   
    64    31    61 1   
    65    31    62 1   
    66    32    63 1   
    67    32    64 1   
    68    33    65 1   
    69    34    66 1   
    70    34    67 1   
    71    34    68 1   
@<TRIPOS>SUBSTRUCTURE
     1 7VM         1 TEMP              0 ****  ****    0 ROOT
