@<TRIPOS>MOLECULE
7VO
   44    44     1     0     0
SMALL
bcc


@<TRIPOS>ATOM
      1 P            0.0000     0.0000     0.0000 p5         1 7VO       0.672900
      2 C5A         -1.9220    -1.6590    -0.8350 c3         1 7VO       0.313700
      3 C5          -2.0790    -2.9400    -1.6110 ca         1 7VO      -0.125600
      4 C6          -0.9700    -3.5930    -2.1140 ca         1 7VO       0.384200
      5 N1          -1.0970    -4.7170    -2.7950 nb         1 7VO      -0.616000
      6 C2          -2.2750    -5.2620    -3.0230 ca         1 7VO       0.245600
      7 C2A         -2.3640    -6.5460    -3.8050 c3         1 7VO      -0.017400
      8 C3          -3.4350    -4.6640    -2.5480 ca         1 7VO      -0.005200
      9 C4          -3.3370    -3.4820    -1.8230 ca         1 7VO      -0.101300
     10 C4A         -4.5700    -2.8040    -1.2840 c3         1 7VO       0.198100
     11 N           -5.0850    -1.8580    -2.2840 n7         1 7VO      -0.581200
     12 CA          -6.2900    -1.1760    -1.7920 c3         1 7VO       0.015500
     13 CB          -6.4410     0.1700    -2.5040 c3         1 7VO      -0.012700
     14 C           -7.5000    -2.0300    -2.0710 c          1 7VO       0.964600
     15 OXT         -8.7200    -1.6050    -1.7060 o          1 7VO      -0.910800
     16 O           -7.3720    -3.0980    -2.6230 o          1 7VO      -0.910800
     17 O3P          1.6100     0.0000     0.0000 o          1 7VO      -0.758833
     18 O1P         -0.4930     0.0000     1.3960 o          1 7VO      -0.758833
     19 O2P         -0.5380     1.3140    -0.7590 o          1 7VO      -0.758833
     20 O4P         -0.5360    -1.3150    -0.7580 os         1 7VO      -0.483200
     21 O3          -4.6480    -5.2310    -2.7850 oh         1 7VO      -0.470100
     22 CG2         -6.6900    -0.0670    -3.9950 c3         1 7VO      -0.013100
     23 CG1         -7.6230     0.9340    -1.9040 c3         1 7VO      -0.069400
     24 CD1         -7.6980     2.3290    -2.5290 c3         1 7VO      -0.000100
     25 H1          -2.4630    -0.8650    -1.3360 h1         1 7VO       0.005200
     26 H2          -2.3180    -1.7900     0.1640 h1         1 7VO       0.005200
     27 H3           0.0160    -3.1780    -1.9480 h4         1 7VO       0.031100
     28 H4          -3.0340    -6.4100    -4.6460 hc         1 7VO      -0.011300
     29 H5          -1.3800    -6.8170    -4.1670 hc         1 7VO      -0.011300
     30 H6          -2.7430    -7.3330    -3.1650 hc         1 7VO      -0.011300
     31 H7          -5.3260    -3.5480    -1.0670 h1         1 7VO       0.019200
     32 H8          -4.3200    -2.2680    -0.3760 h1         1 7VO       0.019200
     33 H9          -5.3020    -2.3510    -3.1280 hn         1 7VO       0.275800
     34 H11         -6.2020    -1.0120    -0.7240 h1         1 7VO       0.035700
     35 H12         -5.5350     0.7490    -2.3760 hc         1 7VO       0.033700
     36 H16         -4.7320    -6.0190    -2.2750 ho         1 7VO       0.370000
     37 H17         -6.5060    -1.1080    -4.2310 hc         1 7VO      -0.001967
     38 H18         -7.7170     0.1820    -4.2340 hc         1 7VO      -0.001967
     39 H19         -6.0220     0.5590    -4.5760 hc         1 7VO      -0.001967
     40 H20         -8.5410     0.3970    -2.1090 hc         1 7VO       0.047700
     41 H21         -7.4880     1.0240    -0.8330 hc         1 7VO       0.047700
     42 H22         -8.2610     2.2820    -3.4530 hc         1 7VO      -0.017967
     43 H23         -6.6960     2.6880    -2.7340 hc         1 7VO      -0.017967
     44 H24         -8.1900     3.0070    -1.8410 hc         1 7VO      -0.017967
@<TRIPOS>BOND
     1     1    17 1   
     2     1    18 1   
     3     1    19 1   
     4     1    20 1   
     5     2     3 1   
     6     2    20 1   
     7     2    25 1   
     8     2    26 1   
     9     3     4 ar  
    10     3     9 ar  
    11     4     5 ar  
    12     4    27 1   
    13     5     6 ar  
    14     6     7 1   
    15     6     8 ar  
    16     7    28 1   
    17     7    29 1   
    18     7    30 1   
    19     8     9 ar  
    20     8    21 1   
    21     9    10 1   
    22    10    11 1   
    23    10    31 1   
    24    10    32 1   
    25    11    12 1   
    26    11    33 1   
    27    12    13 1   
    28    12    14 1   
    29    12    34 1   
    30    13    22 1   
    31    13    23 1   
    32    13    35 1   
    33    14    15 1   
    34    14    16 1   
    35    21    36 1   
    36    22    37 1   
    37    22    38 1   
    38    22    39 1   
    39    23    24 1   
    40    23    40 1   
    41    23    41 1   
    42    24    42 1   
    43    24    43 1   
    44    24    44 1   
@<TRIPOS>SUBSTRUCTURE
     1 7VO         1 TEMP              0 ****  ****    0 ROOT
