@<TRIPOS>MOLECULE
molecule
   22    23     1     0     0
SMALL
bcc


@<TRIPOS>ATOM
      1 C01          0.0000     0.0000     0.0000 c3         1 7VP      -0.106400
      2 C02          1.5070     0.0000     0.0000 cc         1 7VP       0.320600
      3 C03          2.2970     0.0000     1.0930 cd         1 7VP      -0.270600
      4 N04          3.5920    -0.0000     0.6520 na         1 7VP      -0.289900
      5 C05          3.5490    -0.0000    -0.7110 cd         1 7VP       0.456000
      6 C06          4.7210    -0.0010    -1.6140 ca         1 7VP      -0.109500
      7 C07          6.0120    -0.0080    -1.0870 ca         1 7VP      -0.109000
      8 C08          7.1010    -0.0100    -1.9350 ca         1 7VP      -0.128000
      9 C09          6.9140    -0.0040    -3.3050 ca         1 7VP      -0.123000
     10 C10          5.6350     0.0030    -3.8340 ca         1 7VP      -0.128000
     11 C11          4.5390    -0.0010    -2.9980 ca         1 7VP      -0.109000
     12 N12          2.2890    -0.0060    -1.0860 nc         1 7VP      -0.685000
     13 H013        -0.3610     0.0040    -1.0210 hc         1 7VP       0.045367
     14 H012        -0.3610    -0.8860     0.5070 hc         1 7VP       0.045367
     15 H011        -0.3610     0.8830     0.5140 hc         1 7VP       0.045367
     16 H031         1.9680    -0.0000     2.1250 h4         1 7VP       0.174000
     17 H041         4.4150    -0.0000     1.2220 hn         1 7VP       0.299700
     18 H071         6.1600    -0.0120    -0.0140 ha         1 7VP       0.138000
     19 H081         8.1040    -0.0150    -1.5270 ha         1 7VP       0.132500
     20 H091         7.7720    -0.0030    -3.9670 ha         1 7VP       0.131000
     21 H101         5.4950     0.0050    -4.9090 ha         1 7VP       0.132500
     22 H111         3.5390     0.0040    -3.4140 ha         1 7VP       0.138000
@<TRIPOS>BOND
     1     8     7 ar
     2     8     9 ar
     3     7     6 ar
     4     9    10 ar
     5    12     5 2
     6    12     2 1
     7     6     5 1
     8     6    11 ar
     9    10    11 ar
    10     1     2 1
    11     5     4 1
    12     2     3 2
    13     4     3 1
    14     1    13 1
    15     1    14 1
    16     1    15 1
    17     3    16 1
    18     4    17 1
    19     7    18 1
    20     8    19 1
    21     9    20 1
    22    10    21 1
    23    11    22 1
@<TRIPOS>SUBSTRUCTURE
     1 7VP         1 TEMP              0 ****  ****    0 ROOT
