@<TRIPOS>MOLECULE
7VR
   57    60     1     0     0
SMALL
bcc


@<TRIPOS>ATOM
      1 CAA          0.0000     0.0000     0.0000 c3         1 7VR      -0.116000
      2 CAL          1.5300     0.0000     0.0000 c3         1 7VR       0.059000
      3 OAV          2.0070     0.0000     1.3470 os         1 7VR      -0.181000
      4 NAT          3.4180     0.0000     1.4590 n2         1 7VR       0.058000
      5 CAC          3.9750    -0.0000     2.6270 c2         1 7VR      -0.389000
      6 CAY          5.4450     0.0000     2.7440 c3         1 7VR      -0.197000
      7 CAI          6.0480     0.0000     4.0040 c2         1 7VR      -0.003500
      8 CAK          7.4220    -0.0010     4.1090 c2         1 7VR      -0.201000
      9 CAH          6.2390    -0.0060     1.5940 c2         1 7VR      -0.003500
     10 CAJ          7.6130    -0.0050     1.7080 c2         1 7VR      -0.201000
     11 CAZ          8.2070    -0.0000     2.9620 c2         1 7VR       0.150000
     12 OAW          9.5620     0.0000     3.0700 os         1 7VR      -0.184000
     13 CAP         10.3090     0.0010     1.8520 c3         1 7VR       0.051000
     14 CAN         11.8040     0.0010     2.1720 c3         1 7VR      -0.114000
     15 CAM         12.6050     0.0020     0.8680 c3         1 7VR      -0.096000
     16 CAO         14.1020     0.0020     1.1880 c3         1 7VR      -0.134000
     17 CAQ         14.9020     0.0020    -0.1160 c3         1 7VR      -0.019000
     18 NBB         16.3340     0.0030     0.1890 n          1 7VR      -0.050000
     19 CAX         17.0930    -1.0880     0.3520 c2         1 7VR       0.219000
     20 OAB         16.6570    -2.2190     0.2580 o          1 7VR      -0.445000
     21 CAR         17.1680     1.2020     0.3620 c3         1 7VR      -0.083000
     22 CAS         18.5690     0.6370     0.6640 c3         1 7VR      -0.105000
     23 NBC         18.3770    -0.8200     0.6250 n          1 7VR       0.088000
     24 CBA         19.3740    -1.7740     0.8380 c2         1 7VR       0.000000
     25 CAF         19.0860    -3.1360     0.7760 c2         1 7VR      -0.215000
     26 CAD         20.1000    -4.0460     0.9920 c2         1 7VR      -0.032500
     27 NAU         21.3270    -3.6410     1.2560 n2         1 7VR      -0.086000
     28 CAE         21.6400    -2.3600     1.3230 c2         1 7VR      -0.032500
     29 CAG         20.6850    -1.3870     1.1140 c2         1 7VR      -0.215000
     30 HAA1        -0.3610    -0.0020    -1.0210 hc         1 7VR       0.050000
     31 HAA2        -0.3610     0.8860     0.5090 hc         1 7VR       0.050000
     32 HAA3        -0.3610    -0.8830     0.5120 hc         1 7VR       0.050000
     33 HAL1         1.8910     0.8840    -0.5110 h1         1 7VR       0.035000
     34 HAL2         1.8910    -0.8840    -0.5110 h1         1 7VR       0.035000
     35 HAC          4.5990     0.8750     2.4910 DU         1 7VR       0.326000
     36 HAI          5.4360    -0.0000     4.8980 ha         1 7VR       0.122500
     37 HAH          5.7750    -0.0100     0.6150 ha         1 7VR       0.122500
     38 HAK          7.8900     0.0010     5.0850 ha         1 7VR       0.125000
     39 HAJ          8.2290    -0.0070     0.8170 ha         1 7VR       0.125000
     40 HAP1        10.0620     0.8860     1.2780 h1         1 7VR       0.044000
     41 HAP2        10.0620    -0.8830     1.2770 h1         1 7VR       0.044000
     42 HAN1        12.0510     0.8860     2.7470 hc         1 7VR       0.066500
     43 HAN2        12.0510    -0.8840     2.7470 hc         1 7VR       0.066500
     44 HAM1        12.3580    -0.8820     0.2920 hc         1 7VR       0.055500
     45 HAM2        12.3580     0.8870     0.2930 hc         1 7VR       0.055500
     46 HAO1        14.3480     0.8860     1.7630 hc         1 7VR       0.065500
     47 HAO2        14.3480    -0.8830     1.7620 hc         1 7VR       0.065500
     48 HAQ1        14.6550     0.8870    -0.6910 h1         1 7VR       0.068500
     49 HAQ2        14.6560    -0.8820    -0.6910 h1         1 7VR       0.068500
     50 HAR1        16.8260     1.6970     1.2630 h1         1 7VR       0.075000
     51 HAR2        17.2250     1.6890    -0.6040 h1         1 7VR       0.075000
     52 HAS1        19.2020     0.8950    -0.1760 h1         1 7VR       0.081000
     53 HAS2        18.8000     0.8970     1.6900 h1         1 7VR       0.081000
     54 HAF         18.0810    -3.4760     0.5600 ha         1 7VR       0.148000
     55 HAG         20.9480    -0.3380     1.1710 ha         1 7VR       0.148000
     56 HAD         19.8850    -5.1060     0.9450 h4         1 7VR       0.115500
     57 HAE         22.6600    -2.0700     1.5400 h4         1 7VR       0.115500
@<TRIPOS>BOND
     1     1     2 1   
     2     1    30 1   
     3     1    31 1   
     4     1    32 1   
     5     2     3 1   
     6     2    33 1   
     7     2    34 1   
     8     3     4 1   
     9     4     5 1   
    10     5     6 1   
    11     5    35 1   
    12     6     7 1   
    13     6     9 1   
    14     6    35 1   
    15     7     8 1   
    16     7    36 1   
    17     8    11 1   
    18     8    38 1   
    19     9    10 1   
    20     9    37 1   
    21    10    11 1   
    22    10    39 1   
    23    11    12 1   
    24    12    13 1   
    25    13    14 1   
    26    13    40 1   
    27    13    41 1   
    28    14    15 1   
    29    14    42 1   
    30    14    43 1   
    31    15    16 1   
    32    15    44 1   
    33    15    45 1   
    34    16    17 1   
    35    16    46 1   
    36    16    47 1   
    37    17    18 1   
    38    17    48 1   
    39    17    49 1   
    40    18    19 1   
    41    18    21 1   
    42    19    20 1   
    43    19    23 1   
    44    21    22 1   
    45    21    50 1   
    46    21    51 1   
    47    22    23 1   
    48    22    52 1   
    49    22    53 1   
    50    23    24 1   
    51    24    25 1   
    52    24    29 1   
    53    25    26 1   
    54    25    54 1   
    55    26    27 1   
    56    26    56 1   
    57    27    28 1   
    58    28    29 1   
    59    28    57 1   
    60    29    55 1   
@<TRIPOS>SUBSTRUCTURE
     1 7VR         1 TEMP              0 ****  ****    0 ROOT
