@<TRIPOS>MOLECULE
molecule
   57    59     1     0     0
SMALL
bcc


@<TRIPOS>ATOM
      1 CAA          0.0000     0.0000     0.0000 c3         1 7VR      -0.094100
      2 CAL          1.5300     0.0000     0.0000 c3         1 7VR       0.149400
      3 OAV          2.0070     0.0000     1.3470 os         1 7VR      -0.211300
      4 NAT          3.4180     0.0000     1.4590 n2         1 7VR      -0.451200
      5 CAC          3.9750    -0.0000     2.6270 ce         1 7VR       0.439800
      6 CAY          5.4450     0.0000     2.7440 ca         1 7VR      -0.176900
      7 CAI          6.0480     0.0000     4.0040 ca         1 7VR      -0.059500
      8 CAK          7.4220    -0.0010     4.1090 ca         1 7VR      -0.198500
      9 CAH          6.2390    -0.0060     1.5940 ca         1 7VR      -0.059500
     10 CAJ          7.6130    -0.0050     1.7080 ca         1 7VR      -0.198500
     11 CAZ          8.2070    -0.0000     2.9620 ca         1 7VR       0.158100
     12 OAW          9.5620     0.0000     3.0700 os         1 7VR      -0.328900
     13 CAP         10.3090     0.0010     1.8520 c3         1 7VR       0.137400
     14 CAN         11.8040     0.0010     2.1720 c3         1 7VR      -0.081400
     15 CAM         12.6050     0.0020     0.8680 c3         1 7VR      -0.079400
     16 CAO         14.1020     0.0020     1.1880 c3         1 7VR      -0.106400
     17 CAQ         14.9020     0.0020    -0.1160 c3         1 7VR       0.148000
     18 NBB         16.3340     0.0030     0.1890 n          1 7VR      -0.515800
     19 CAX         17.0930    -1.0880     0.3520 c          1 7VR       0.817500
     20 OAB         16.6570    -2.2190     0.2580 o          1 7VR      -0.673500
     21 CAR         17.1680     1.2020     0.3620 c3         1 7VR       0.072000
     22 CAS         18.5690     0.6370     0.6640 c3         1 7VR       0.071000
     23 NBC         18.3770    -0.8200     0.6250 n          1 7VR      -0.397000
     24 CBA         19.3740    -1.7740     0.8380 ca         1 7VR       0.133600
     25 CAF         19.0860    -3.1360     0.7760 ca         1 7VR      -0.299800
     26 CAD         20.1000    -4.0460     0.9920 ca         1 7VR       0.441700
     27 NAU         21.3270    -3.6410     1.2560 nb         1 7VR      -0.717000
     28 CAE         21.6400    -2.3600     1.3230 ca         1 7VR       0.441700
     29 CAG         20.6850    -1.3870     1.1140 ca         1 7VR      -0.299800
     30 HAA1        -0.3610    -0.8850     0.5110 hc         1 7VR       0.045033
     31 HAA2        -0.3610    -0.0000    -1.0210 hc         1 7VR       0.045033
     32 HAA3        -0.3610     0.8850     0.5110 hc         1 7VR       0.045033
     33 HAL1         1.8910    -0.8840    -0.5110 h1         1 7VR       0.033200
     34 HAL2         1.8910     0.8840    -0.5110 h1         1 7VR       0.033200
     35 HAC          3.3610    -0.0000     3.5200 h4         1 7VR      -0.001200
     36 HAI          5.4360    -0.0000     4.8980 ha         1 7VR       0.144500
     37 HAH          5.7750    -0.0100     0.6150 ha         1 7VR       0.144500
     38 HAK          7.8900     0.0010     5.0850 ha         1 7VR       0.142500
     39 HAJ          8.2290    -0.0070     0.8170 ha         1 7VR       0.142500
     40 HAP1        10.0620    -0.8830     1.2770 h1         1 7VR       0.037200
     41 HAP2        10.0620     0.8860     1.2780 h1         1 7VR       0.037200
     42 HAN1        12.0510     0.8860     2.7470 hc         1 7VR       0.058700
     43 HAN2        12.0510    -0.8840     2.7470 hc         1 7VR       0.058700
     44 HAM1        12.3580    -0.8820     0.2920 hc         1 7VR       0.044200
     45 HAM2        12.3580     0.8870     0.2930 hc         1 7VR       0.044200
     46 HAO1        14.3480    -0.8830     1.7620 hc         1 7VR       0.055200
     47 HAO2        14.3480     0.8860     1.7630 hc         1 7VR       0.055200
     48 HAQ1        14.6560    -0.8820    -0.6910 h1         1 7VR       0.060700
     49 HAQ2        14.6550     0.8870    -0.6910 h1         1 7VR       0.060700
     50 HAR1        17.2250     1.6890    -0.6040 h1         1 7VR       0.066700
     51 HAR2        16.8260     1.6970     1.2630 h1         1 7VR       0.066700
     52 HAS1        19.2020     0.8950    -0.1760 h1         1 7VR       0.072200
     53 HAS2        18.8000     0.8970     1.6900 h1         1 7VR       0.072200
     54 HAF         18.0810    -3.4760     0.5600 ha         1 7VR       0.163500
     55 HAG         20.9480    -0.3380     1.1710 ha         1 7VR       0.163500
     56 HAD         19.8850    -5.1060     0.9450 h4         1 7VR       0.024600
     57 HAE         22.6600    -2.0700     1.5400 h4         1 7VR       0.024600
@<TRIPOS>BOND
     1     1     2 1
     2     2     3 1
     3     3     4 1
     4     4     5 2
     5     5     6 1
     6     6     7 ar
     7     6     9 ar
     8     7     8 ar
     9     8    11 ar
    10     9    10 ar
    11    10    11 ar
    12    11    12 1
    13    12    13 1
    14    13    14 1
    15    14    15 1
    16    15    16 1
    17    16    17 1
    18    17    18 1
    19    18    19 1
    20    18    21 1
    21    19    20 2
    22    19    23 1
    23    21    22 1
    24    22    23 1
    25    23    24 1
    26    24    25 ar
    27    24    29 ar
    28    25    26 ar
    29    26    27 ar
    30    27    28 ar
    31    28    29 ar
    32     1    30 1
    33     1    31 1
    34     1    32 1
    35     2    33 1
    36     2    34 1
    37     5    35 1
    38     7    36 1
    39     9    37 1
    40     8    38 1
    41    10    39 1
    42    13    40 1
    43    13    41 1
    44    14    42 1
    45    14    43 1
    46    15    44 1
    47    15    45 1
    48    16    46 1
    49    16    47 1
    50    17    48 1
    51    17    49 1
    52    21    50 1
    53    21    51 1
    54    22    52 1
    55    22    53 1
    56    25    54 1
    57    29    55 1
    58    26    56 1
    59    28    57 1
@<TRIPOS>SUBSTRUCTURE
     1 7VR         1 TEMP              0 ****  ****    0 ROOT
