@<TRIPOS>MOLECULE
7VS
   22    23     1     0     0
SMALL
bcc


@<TRIPOS>ATOM
      1 N01          0.0000     0.0000     0.0000 nz         1 7VS       0.405300
      2 N02          1.4010     0.0000     0.0000 n2         1 7VS      -0.855400
      3 C03          2.0570     0.0000     1.1340 cc         1 7VS       0.690200
      4 C04          1.3520    -0.0080     2.4330 cc         1 7VS      -0.463600
      5 C05          2.0490    -0.2650     3.5490 cd         1 7VS       0.054000
      6 N06          3.3980    -0.5290     3.5200 na         1 7VS      -0.045400
      7 C07          4.1690    -0.2620     2.3970 ca         1 7VS      -0.010400
      8 C08          5.5560    -0.2580     2.4660 ca         1 7VS      -0.133000
      9 C09          6.2990     0.0060     1.3310 ca         1 7VS      -0.007000
     10 C10          5.6750     0.2690     0.1240 ca         1 7VS      -0.103000
     11 C11          4.2950     0.2700     0.0380 ca         1 7VS      -0.004000
     12 C12          3.5400     0.0010     1.1740 ca         1 7VS      -0.196900
     13 H1          -0.3340    -0.0330    -0.9430 hn         1 7VS       0.198133
     14 H2          -0.3340     0.8330     0.4430 hn         1 7VS       0.198133
     15 H4           0.3390     0.3700     2.5020 ha         1 7VS       0.129000
     16 H5           1.5330    -0.2660     4.5020 h4         1 7VS       0.140000
     17 H6           6.0540    -0.4620     3.4060 ha         1 7VS       0.126000
     18 H7           7.3810     0.0080     1.3870 ha         1 7VS       0.122000
     19 H8           6.2700     0.4750    -0.7570 ha         1 7VS       0.128000
     20 H9           3.8070     0.4750    -0.9070 ha         1 7VS       0.133000
     21 H3           3.8360    -0.9230     4.3290 hn         1 7VS       0.296800
     22 H013        -0.3340    -0.8040     0.4950 hn         1 7VS       0.198133
@<TRIPOS>BOND
     1     1     2 1   
     2     1    13 1   
     3     1    14 1   
     4     1    22 1   
     5     2     3 2   
     6     3     4 1   
     7     3    12 1   
     8     4     5 2   
     9     4    15 1   
    10     5     6 1   
    11     5    16 1   
    12     6     7 1   
    13     6    21 1   
    14     7     8 ar  
    15     7    12 ar  
    16     8     9 ar  
    17     8    17 1   
    18     9    10 ar  
    19     9    18 1   
    20    10    11 ar  
    21    10    19 1   
    22    11    12 ar  
    23    11    20 1   
@<TRIPOS>SUBSTRUCTURE
     1 7VS         1 TEMP              0 ****  ****    0 ROOT
