@<TRIPOS>MOLECULE
molecule
   22    23     1     0     0
SMALL
bcc


@<TRIPOS>ATOM
      1 N01          0.0000     0.0000     0.0000 nz         1 7VS      -0.486700
      2 N02          1.4010     0.0000     0.0000 n2         1 7VS      -0.625400
      3 C03          2.0570     0.0000     1.1340 cc         1 7VS       0.614200
      4 C04          1.3520    -0.0080     2.4330 cc         1 7VS      -0.468600
      5 C05          2.0490    -0.2650     3.5490 cd         1 7VS       0.195000
      6 N06          3.3980    -0.5290     3.5200 na         1 7VS      -0.592400
      7 C07          4.1690    -0.2620     2.3970 ca         1 7VS       0.176600
      8 C08          5.5560    -0.2580     2.4660 ca         1 7VS      -0.168000
      9 C09          6.2990     0.0060     1.3310 ca         1 7VS      -0.043000
     10 C10          5.6750     0.2690     0.1240 ca         1 7VS      -0.141000
     11 C11          4.2950     0.2700     0.0380 ca         1 7VS      -0.042000
     12 C12          3.5400     0.0010     1.1740 ca         1 7VS      -0.192900
     13 H1          -0.3340    -0.0330    -0.9430 hn         1 7VS       0.443133
     14 H2          -0.3340     0.8330     0.4430 hn         1 7VS       0.443133
     15 H4           0.3390     0.3690     2.5020 ha         1 7VS       0.147000
     16 H5           1.5330    -0.2660     4.5020 h4         1 7VS       0.179000
     17 H6           6.0540    -0.4620     3.4060 ha         1 7VS       0.156000
     18 H7           7.3810     0.0080     1.3870 ha         1 7VS       0.161000
     19 H8           6.2700     0.4750    -0.7570 ha         1 7VS       0.161000
     20 H9           3.8070     0.4750    -0.9070 ha         1 7VS       0.164000
     21 H3           3.8360    -0.9230     4.3300 hn         1 7VS       0.475800
     22 H013        -0.3340    -0.8040     0.4950 hn         1 7VS       0.443133
@<TRIPOS>BOND
     1     1     2 1
     2     2     3 2
     3    11    10 ar
     4    11    12 ar
     5     3    12 1
     6     3     4 1
     7    10     9 ar
     8    12     7 ar
     9     4     5 2
    10     9     8 ar
    11     7     8 ar
    12     7     6 1
    13     5     6 1
    14     1    13 1
    15     1    14 1
    16     4    15 1
    17     5    16 1
    18     8    17 1
    19     9    18 1
    20    10    19 1
    21    11    20 1
    22     6    21 1
    23    22     1 1
@<TRIPOS>SUBSTRUCTURE
     1 7VS         1 TEMP              0 ****  ****    0 ROOT
