@<TRIPOS>MOLECULE
7VV
   47    49     1     0     0
SMALL
bcc


@<TRIPOS>ATOM
      1 C1           0.0000     0.0000     0.0000 ca         1 7VV      -0.189000
      2 C2           1.3870     0.0000     0.0000 ca         1 7VV       0.150100
      3 C3           2.0800     0.0000     1.2020 ca         1 7VV      -0.114000
      4 C11          3.0500     1.4420     5.5280 c3         1 7VV      -0.038400
      5 C12          3.2980     2.8970     5.9500 c3         1 7VV       0.090900
      6 C13          1.9700     3.6100     5.9650 cc         1 7VV      -0.436900
      7 C15          1.6550     4.7780     6.5310 cd         1 7VV       0.338600
      8 C17         -0.1540     4.0330     5.5860 cc         1 7VV       0.352400
      9 C18          2.5940     5.6690     7.3040 c3         1 7VV      -0.054000
     10 C19          2.6810     7.0350     6.6190 c3         1 7VV       0.007400
     11 C20          2.0700     5.8460     8.7300 c3         1 7VV       0.007400
     12 C23          1.2900     0.0000    -2.3760 c3         1 7VV       0.243700
     13 C4           1.3860    -0.0010     2.3980 ca         1 7VV      -0.080300
     14 C5           0.0020    -0.0000     2.3960 ca         1 7VV       0.052900
     15 C6          -0.6900     0.0060     1.1960 ca         1 7VV      -0.080000
     16 F7          -0.6740    -0.0010     3.5650 f          1 7VV      -0.132900
     17 C8           2.1380    -0.0010     3.7040 c3         1 7VV       0.034900
     18 C9           0.7530     1.8660     4.6220 c3         1 7VV      -0.056700
     19 C10          2.1760     1.4190     4.2710 c3         1 7VV      -0.054700
     20 N14          0.8270     3.1290     5.3610 na         1 7VV       0.251100
     21 N16          0.3520     5.0220     6.2900 nd         1 7VV      -0.690000
     22 O22          2.0670     0.0000    -1.1770 os         1 7VV      -0.303900
     23 H24         -0.5420     0.0020    -0.9380 ha         1 7VV       0.126000
     24 H25          3.1630    -0.0000     1.2040 ha         1 7VV       0.126000
     25 H33          2.5090     0.9470     6.3260 hc         1 7VV       0.025700
     26 H32          4.0060     0.9950     5.2840 hc         1 7VV       0.025700
     27 H35          3.6980     2.8980     6.9570 hc         1 7VV       0.024700
     28 H34          3.9300     3.3660     5.2060 hc         1 7VV       0.024700
     29 H36          3.5780     5.2170     7.3340 hc         1 7VV       0.018700
     30 H39          3.4200     7.6450     7.1250 hc         1 7VV       0.003700
     31 H38          2.9700     6.9020     5.5840 hc         1 7VV       0.003700
     32 H37          1.7160     7.5240     6.6650 hc         1 7VV       0.003700
     33 H42          2.7930     6.4010     9.3140 hc         1 7VV       0.003700
     34 H41          1.9130     4.8730     9.1810 hc         1 7VV       0.003700
     35 H40          1.1320     6.3880     8.7060 hc         1 7VV       0.003700
     36 H47          1.9500    -0.0010    -3.2350 h1         1 7VV      -0.000633
     37 H46          0.6640    -0.8840    -2.4010 h1         1 7VV      -0.000633
     38 H45          0.6650     0.8850    -2.4010 h1         1 7VV      -0.000633
     39 H26         -1.7730     0.0060     1.1960 ha         1 7VV       0.117000
     40 H28          1.6400    -0.6580     4.4070 hc         1 7VV       0.030700
     41 H27          3.1500    -0.3510     3.5380 hc         1 7VV       0.030700
     42 H30          0.1830     2.0110     3.7120 h1         1 7VV       0.041200
     43 H29          0.2780     1.1120     5.2390 h1         1 7VV       0.041200
     44 H31          2.5920     2.0950     3.5340 hc         1 7VV       0.043700
     45 H43         -1.7650     3.1240     4.6460 hn         1 7VV       0.271800
     46 H44         -2.1190     4.6600     5.3670 hn         1 7VV       0.271800
     47 N21         -1.4650     3.9340     5.1520 nv         1 7VV      -0.537500
@<TRIPOS>BOND
     1     1     2 ar  
     2     1    15 ar  
     3     1    23 1   
     4     2     3 ar  
     5     2    22 1   
     6     3    13 ar  
     7     3    24 1   
     8     4     5 1   
     9     4    19 1   
    10     4    25 1   
    11     4    26 1   
    12     5     6 1   
    13     5    27 1   
    14     5    28 1   
    15     6     7 2   
    16     6    20 1   
    17     7     9 1   
    18     7    21 1   
    19     8    20 1   
    20     8    21 2   
    21     8    47 1   
    22     9    10 1   
    23     9    11 1   
    24     9    29 1   
    25    10    30 1   
    26    10    31 1   
    27    10    32 1   
    28    11    33 1   
    29    11    34 1   
    30    11    35 1   
    31    12    22 1   
    32    12    36 1   
    33    12    37 1   
    34    12    38 1   
    35    13    14 ar  
    36    13    17 1   
    37    14    15 ar  
    38    14    16 1   
    39    15    39 1   
    40    17    19 1   
    41    17    40 1   
    42    17    41 1   
    43    18    19 1   
    44    18    20 1   
    45    18    42 1   
    46    18    43 1   
    47    19    44 1   
    48    45    47 1   
    49    46    47 1   
@<TRIPOS>SUBSTRUCTURE
     1 7VV         1 TEMP              0 ****  ****    0 ROOT
