@<TRIPOS>MOLECULE
molecule
   47    49     1     0     0
SMALL
bcc


@<TRIPOS>ATOM
      1 C1           0.0000     0.0000     0.0000 ca         1 7VV      -0.200000
      2 C2           1.3870     0.0000     0.0000 ca         1 7VV       0.137100
      3 C3           2.0800     0.0000     1.2020 ca         1 7VV      -0.132000
      4 C11          3.0500     1.4420     5.5280 c3         1 7VV      -0.084400
      5 C12          3.2980     2.8970     5.9500 c3         1 7VV       0.006900
      6 C13          1.9700     3.6100     5.9650 cc         1 7VV      -0.255900
      7 C15          1.6550     4.7780     6.5310 cd         1 7VV       0.358600
      8 C17         -0.1540     4.0330     5.5860 cc         1 7VV       0.691400
      9 C18          2.5940     5.6690     7.3040 c3         1 7VV      -0.083000
     10 C19          2.6810     7.0350     6.6190 c3         1 7VV      -0.082100
     11 C20          2.0700     5.8460     8.7300 c3         1 7VV      -0.082100
     12 C23          1.2900     0.0000    -2.3760 c3         1 7VV       0.127700
     13 C4           1.3860    -0.0010     2.3980 ca         1 7VV      -0.084300
     14 C5           0.0020    -0.0000     2.3960 ca         1 7VV       0.081900
     15 C6          -0.6900     0.0060     1.1960 ca         1 7VV      -0.121000
     16 F7          -0.6740    -0.0010     3.5650 f          1 7VV      -0.148900
     17 C8           2.1380    -0.0010     3.7040 c3         1 7VV      -0.030100
     18 C9           0.7530     1.8660     4.6220 c3         1 7VV       0.047300
     19 C10          2.1760     1.4190     4.2710 c3         1 7VV      -0.081700
     20 N14          0.8270     3.1290     5.3610 na         1 7VV      -0.219900
     21 N16          0.3520     5.0220     6.2900 nd         1 7VV      -0.760000
     22 O22          2.0670     0.0000    -1.1770 os         1 7VV      -0.324900
     23 H24         -0.5420     0.0020    -0.9380 ha         1 7VV       0.143000
     24 H25          3.1630    -0.0000     1.2040 ha         1 7VV       0.153000
     25 H33          2.5090     0.9470     6.3260 hc         1 7VV       0.052200
     26 H32          4.0060     0.9950     5.2840 hc         1 7VV       0.052200
     27 H35          3.6980     2.8980     6.9570 hc         1 7VV       0.058200
     28 H34          3.9300     3.3660     5.2060 hc         1 7VV       0.058200
     29 H36          3.5780     5.2170     7.3340 hc         1 7VV       0.045700
     30 H39          3.4200     7.6450     7.1250 hc         1 7VV       0.035700
     31 H38          2.9700     6.9020     5.5840 hc         1 7VV       0.035700
     32 H37          1.7160     7.5240     6.6650 hc         1 7VV       0.035700
     33 H42          2.7930     6.4010     9.3140 hc         1 7VV       0.035700
     34 H41          1.9130     4.8730     9.1810 hc         1 7VV       0.035700
     35 H40          1.1320     6.3880     8.7060 hc         1 7VV       0.035700
     36 H47          1.9500    -0.0010    -3.2350 h1         1 7VV       0.044033
     37 H46          0.6640    -0.8840    -2.4010 h1         1 7VV       0.044033
     38 H45          0.6650     0.8850    -2.4010 h1         1 7VV       0.044033
     39 H26         -1.7730     0.0060     1.1960 ha         1 7VV       0.146000
     40 H28          1.6400    -0.6580     4.4070 hc         1 7VV       0.061200
     41 H27          3.1500    -0.3510     3.5380 hc         1 7VV       0.061200
     42 H30          0.1830     2.0110     3.7120 h1         1 7VV       0.061200
     43 H29          0.2780     1.1120     5.2390 h1         1 7VV       0.061200
     44 H31          2.5920     2.0950     3.5340 hc         1 7VV       0.068700
     45 H43         -1.7650     3.1240     4.6460 hn         1 7VV       0.444800
     46 H44         -2.1190     4.6600     5.3670 hn         1 7VV       0.444800
     47 N21         -1.4650     3.9340     5.1520 nv         1 7VV      -1.017500
@<TRIPOS>BOND
     1    16    14 1   
     2    15    14 ar  
     3    15     1 ar  
     4    14    13 ar  
     5     1     2 ar  
     6    13    17 1   
     7    13     3 ar  
     8    17    19 1   
     9    47     8 1   
    10    18    19 1   
    11    18    20 1   
    12     2     3 ar  
    13     2    22 1   
    14    19     4 1   
    15     8    20 1   
    16     8    21 2   
    17    22    12 1   
    18    20     6 1   
    19     4     5 1   
    20    21     7 1   
    21     6     5 1   
    22     6     7 2   
    23     7     9 1   
    24    10     9 1   
    25     9    11 1   
    26     1    23 1   
    27     3    24 1   
    28     4    25 1   
    29     4    26 1   
    30     5    27 1   
    31     5    28 1   
    32     9    29 1   
    33    10    30 1   
    34    10    31 1   
    35    10    32 1   
    36    11    33 1   
    37    11    34 1   
    38    11    35 1   
    39    12    36 1   
    40    12    37 1   
    41    12    38 1   
    42    15    39 1   
    43    17    40 1   
    44    17    41 1   
    45    18    42 1   
    46    18    43 1   
    47    19    44 1   
    48    47    45 1   
    49    47    46 1   
@<TRIPOS>SUBSTRUCTURE
     1 7VV         1 TEMP              0 ****  ****    0 ROOT
