@<TRIPOS>MOLECULE
molecule
   75    79     1     0     0
SMALL
bcc


@<TRIPOS>ATOM
      1 O2           0.0000     0.0000     0.0000 o          1 7VX      -0.540100
      2 C            1.2050     0.0000     0.0000 c          1 7VX       0.582100
      3 C3           1.9920     0.0000     1.2900 c3         1 7VX      -0.159700
      4 C4           2.4920     1.4000     1.6060 c3         1 7VX      -0.090100
      5 C5           3.0650    -1.0710     1.2660 c3         1 7VX      -0.033700
      6 C27          3.7970    -1.3350    -0.0220 c3         1 7VX      -0.039000
      7 C2           2.9480    -1.1740    -1.2860 c3         1 7VX      -0.065400
      8 C1           1.9950     0.0060    -1.2870 c3         1 7VX      -0.191400
      9 C28          4.1130    -2.8650    -0.0350 c3         1 7VX      -0.097100
     10 C26          5.1200    -0.5930    -0.2090 c3         1 7VX      -0.031700
     11 C8           5.9780    -0.4820     1.0250 c3         1 7VX      -0.032000
     12 C9           6.6070    -1.8570     1.3520 c3         1 7VX      -0.098100
     13 C7           5.1790    -0.0450     2.2480 c3         1 7VX      -0.075400
     14 C6           3.9790    -0.9450     2.4800 c3         1 7VX      -0.071400
     15 C25          4.8210     0.7440    -0.8710 c3         1 7VX      -0.040200
     16 C24          5.8750     1.7800    -0.6900 c2         1 7VX      -0.237200
     17 C23          6.9170     1.6870     0.0840 c2         1 7VX      -0.061400
     18 C10          7.1910     0.4360     0.8550 c3         1 7VX      -0.006800
     19 C11          8.2340    -0.3750     0.0660 c3         1 7VX      -0.084100
     20 C22          7.8700     2.8560     0.1510 c3         1 7VX      -0.003500
     21 C14          8.4810     3.0420     1.5330 c3         1 7VX      -0.149000
     22 C15          9.6700     3.9740     1.4380 c          1 7VX       0.900600
     23 O1          10.3690     4.2840     2.5420 o          1 7VX      -0.846800
     24 O            9.9910     4.4380     0.3690 o          1 7VX      -0.846800
     25 C13          8.9740     1.7010     2.0820 c3         1 7VX      -0.054400
     26 C12          7.7900     0.7480     2.2240 c3         1 7VX      -0.081400
     27 C21          7.2690     4.1480    -0.3650 c3         1 7VX      -0.056400
     28 C18          6.3910     4.9110     0.6050 c3         1 7VX      -0.052000
     29 C20          4.9860     4.3100     0.6910 c3         1 7VX      -0.085600
     30 C19          6.2390     6.3540     0.0750 c3         1 7VX      -0.085600
     31 C17          6.9880     4.9960     2.0070 c3         1 7VX      -0.062400
     32 C16          7.4460     3.6290     2.4930 c3         1 7VX      -0.050400
     33 H1           1.3000    -0.2730     2.0770 hc         1 7VX       0.058700
     34 H2           3.3620     1.6190     0.9980 hc         1 7VX       0.049033
     35 H3           2.7600     1.4600     2.6540 hc         1 7VX       0.049033
     36 H4           1.7120     2.1200     1.3910 hc         1 7VX       0.049033
     37 H5           2.5180    -1.9890     1.4410 hc         1 7VX       0.030700
     38 H6           2.3670    -2.0780    -1.4200 hc         1 7VX       0.043700
     39 H7           3.6180    -1.0660    -2.1310 hc         1 7VX       0.043700
     40 H8           1.3170    -0.0780    -2.1270 hc         1 7VX       0.071200
     41 H9           2.5600     0.9280    -1.3600 hc         1 7VX       0.071200
     42 H10          4.8720    -3.0710    -0.7800 hc         1 7VX       0.033367
     43 H11          4.4730    -3.1680     0.9410 hc         1 7VX       0.033367
     44 H12          3.2130    -3.4180    -0.2740 hc         1 7VX       0.033367
     45 H13          5.6950    -1.1690    -0.9250 hc         1 7VX       0.043700
     46 H14          7.4860    -1.7150     1.9700 hc         1 7VX       0.032367
     47 H15          6.8900    -2.3530     0.4310 hc         1 7VX       0.032367
     48 H16          5.8860    -2.4670     1.8840 hc         1 7VX       0.032367
     49 H17          4.8330     0.9710     2.0980 hc         1 7VX       0.055200
     50 H18          5.8200    -0.0810     3.1200 hc         1 7VX       0.055200
     51 H19          3.4020    -0.5440     3.3050 hc         1 7VX       0.036200
     52 H20          4.3350    -1.9320     2.7470 hc         1 7VX       0.036200
     53 H21          3.8940     1.1260    -0.4610 hc         1 7VX       0.039200
     54 H22          4.6890     0.5750    -1.9330 hc         1 7VX       0.039200
     55 H23          5.7660     2.6960    -1.2580 ha         1 7VX       0.132000
     56 H24          7.7320    -0.9800    -0.6790 hc         1 7VX       0.033033
     57 H25          8.9220     0.3030    -0.4240 hc         1 7VX       0.033033
     58 H26          8.7810    -1.0170     0.7450 hc         1 7VX       0.033033
     59 H27          8.6900     2.6160    -0.5150 hc         1 7VX       0.070700
     60 H29          9.4310     1.8550     3.0530 hc         1 7VX       0.051200
     61 H30          9.6990     1.2760     1.3990 hc         1 7VX       0.051200
     62 H31          8.1270    -0.1730     2.6850 hc         1 7VX       0.034700
     63 H32          7.0340     1.2100     2.8480 hc         1 7VX       0.034700
     64 H33          6.6760     3.9150    -1.2410 hc         1 7VX       0.051700
     65 H34          8.0810     4.7990    -0.6650 hc         1 7VX       0.051700
     66 H35          5.0220     3.3860     1.2550 hc         1 7VX       0.024533
     67 H36          4.3230     5.0100     1.1860 hc         1 7VX       0.024533
     68 H37          4.6170     4.1100    -0.3080 hc         1 7VX       0.024533
     69 H38          7.2150     6.8190     0.0070 hc         1 7VX       0.024533
     70 H39          5.7810     6.3320    -0.9070 hc         1 7VX       0.024533
     71 H40          5.6130     6.9240     0.7510 hc         1 7VX       0.024533
     72 H41          7.8370     5.6680     1.9900 hc         1 7VX       0.043200
     73 H42          6.2380     5.3800     2.6890 hc         1 7VX       0.043200
     74 H43          6.5920     2.9640     2.5460 hc         1 7VX       0.032200
     75 H44          7.8900     3.7290     3.4760 hc         1 7VX       0.032200
@<TRIPOS>BOND
     1     4     3 1
     2     1     2 2
     3     2     3 1
     4     2     8 1
     5     3     5 1
     6     8     7 1
     7     7     6 1
     8     5    14 1
     9     5     6 1
    10    14    13 1
    11     6     9 1
    12     6    10 1
    13    13    11 1
    14    15    10 1
    15    15    16 1
    16    10    11 1
    17    11    12 1
    18    11    18 1
    19    16    17 2
    20    17    18 1
    21    17    20 1
    22    18    26 1
    23    18    19 1
    24    27    20 1
    25    27    28 1
    26    30    28 1
    27    20    21 1
    28    26    25 1
    29    28    29 1
    30    28    31 1
    31    25    21 1
    32    21    22 1
    33    21    32 1
    34    31    32 1
    35    24    22 1
    36    22    23 1
    37     3    33 1
    38     4    34 1
    39     4    35 1
    40     4    36 1
    41     5    37 1
    42     7    38 1
    43     7    39 1
    44     8    40 1
    45     8    41 1
    46     9    42 1
    47     9    43 1
    48     9    44 1
    49    10    45 1
    50    12    46 1
    51    12    47 1
    52    12    48 1
    53    13    49 1
    54    13    50 1
    55    14    51 1
    56    14    52 1
    57    15    53 1
    58    15    54 1
    59    16    55 1
    60    19    56 1
    61    19    57 1
    62    19    58 1
    63    20    59 1
    64    25    60 1
    65    25    61 1
    66    26    62 1
    67    26    63 1
    68    27    64 1
    69    27    65 1
    70    29    66 1
    71    29    67 1
    72    29    68 1
    73    30    69 1
    74    30    70 1
    75    30    71 1
    76    31    72 1
    77    31    73 1
    78    32    74 1
    79    32    75 1
@<TRIPOS>SUBSTRUCTURE
     1 7VX         1 TEMP              0 ****  ****    0 ROOT
