@<TRIPOS>MOLECULE
molecule
   34    35     1     0     0
SMALL
bcc


@<TRIPOS>ATOM
      1 C1           0.0000     0.0000     0.0000 ca         1 7VY      -0.224000
      2 C2           1.3810     0.0000     0.0000 ca         1 7VY      -0.088000
      3 C3           2.0730     0.0000     1.1980 ca         1 7VY      -0.169000
      4 C11          4.2680     3.5340     4.8670 c3         1 7VY       0.157800
      5 C13          3.3260     2.1290     3.1320 c3         1 7VY       0.158800
      6 C4           1.3850     0.0020     2.3970 ca         1 7VY      -0.044300
      7 C5           0.0030     0.0010     2.4010 ca         1 7VY      -0.155000
      8 C6          -0.6930     0.0070     1.2020 ca         1 7VY       0.144100
      9 C7           2.1420     0.0030     3.7000 c3         1 7VY      -0.034100
     10 C8           2.3980     1.4460     4.1390 c3         1 7VY      -0.063700
     11 C9           3.0610     1.4490     5.5200 c3         1 7VY      -0.078400
     12 C10          3.3690     2.8930     5.9260 c3         1 7VY      -0.077400
     13 N12          3.5900     3.5070     3.5650 n7         1 7VY      -0.817200
     14 O14         -2.0530     0.0070     1.2040 os         1 7VY      -0.329900
     15 H1          -0.5420     0.0020    -0.9380 ha         1 7VY       0.133000
     16 H2           1.9220    -0.0030    -0.9380 ha         1 7VY       0.129000
     17 H3           3.1560     0.0000     1.1960 ha         1 7VY       0.129000
     18 H5           4.4740     4.5610     5.1440 h1         1 7VY       0.029200
     19 H6           2.8520     2.1420     2.1580 h1         1 7VY       0.034700
     20 H7           4.2610     1.5840     3.0770 h1         1 7VY       0.034700
     21 H8          -2.4190    -0.8710    -0.6250 h1         1 7VY       0.041033
     22 H9          -3.7770     0.0190     0.0750 h1         1 7VY       0.041033
     23 H10         -2.4090     0.8980    -0.6210 h1         1 7VY       0.041033
     24 H11         -0.5360     0.0050     3.3410 ha         1 7VY       0.144000
     25 H12          3.0880    -0.5080     3.5670 hc         1 7VY       0.050700
     26 H13          1.5590    -0.5080     4.4570 hc         1 7VY       0.050700
     27 H14          1.4600     1.9860     4.1890 hc         1 7VY       0.072700
     28 H15          3.9830     0.8810     5.4790 hc         1 7VY       0.040700
     29 H16          2.3880     1.0060     6.2450 hc         1 7VY       0.040700
     30 H17          2.4440     3.4520     6.0000 hc         1 7VY       0.048200
     31 H18          3.8790     2.8980     6.8820 hc         1 7VY       0.048200
     32 H19          4.1580     3.9690     2.8830 hn         1 7VY       0.352800
     33 H4           5.1970     2.9800     4.8000 h1         1 7VY       0.029200
     34 C15         -2.7040     0.0140    -0.0690 c3         1 7VY       0.129700
@<TRIPOS>BOND
     1    12     4 1
     2    12    11 1
     3     4    13 1
     4    11    10 1
     5    34    14 1
     6    14     8 1
     7    13     5 1
     8    10     5 1
     9    10     9 1
    10     8     7 ar
    11     8     1 ar
    12     7     6 ar
    13     9     6 1
    14     1     2 ar
    15     6     3 ar
    16     2     3 ar
    17     1    15 1
    18     2    16 1
    19     3    17 1
    20     4    33 1
    21     4    18 1
    22     5    19 1
    23     5    20 1
    24    34    21 1
    25    34    22 1
    26    34    23 1
    27     7    24 1
    28     9    25 1
    29     9    26 1
    30    10    27 1
    31    11    28 1
    32    11    29 1
    33    12    30 1
    34    12    31 1
    35    13    32 1
@<TRIPOS>SUBSTRUCTURE
     1 7VY         1 TEMP              0 ****  ****    0 ROOT
