@<TRIPOS>MOLECULE
7VY
   34    35     1     0     0
SMALL
bcc


@<TRIPOS>ATOM
      1 C1           0.0000     0.0000     0.0000 ca         1 7VY      -0.215000
      2 C2           1.3810     0.0000     0.0000 ca         1 7VY      -0.054000
      3 C3           2.0730     0.0000     1.1980 ca         1 7VY      -0.150000
      4 C11          4.2680     3.5340     4.8670 c3         1 7VY       0.145800
      5 C13          3.3260     2.1290     3.1320 c3         1 7VY       0.133800
      6 C4           1.3850     0.0020     2.3970 ca         1 7VY      -0.046300
      7 C5           0.0030     0.0010     2.4010 ca         1 7VY      -0.138000
      8 C6          -0.6930     0.0070     1.2020 ca         1 7VY       0.155100
      9 C7           2.1420     0.0030     3.7000 c3         1 7VY       0.029900
     10 C8           2.3980     1.4460     4.1390 c3         1 7VY      -0.046700
     11 C9           3.0610     1.4490     5.5200 c3         1 7VY      -0.025400
     12 C10          3.3690     2.8930     5.9260 c3         1 7VY      -0.023400
     13 N12          3.5900     3.5070     3.5650 n7         1 7VY      -0.576200
     14 O14         -2.0530     0.0070     1.2040 os         1 7VY      -0.308900
     15 H1          -0.5420     0.0020    -0.9380 ha         1 7VY       0.119000
     16 H2           1.9220    -0.0030    -0.9380 ha         1 7VY       0.099000
     17 H3           3.1560     0.0000     1.1960 ha         1 7VY       0.109000
     18 H5           4.4740     4.5610     5.1440 h1         1 7VY       0.003200
     19 H6           2.8520     2.1420     2.1580 h1         1 7VY       0.013200
     20 H7           4.2610     1.5840     3.0770 h1         1 7VY       0.013200
     21 H8          -2.4190    -0.8710    -0.6250 h1         1 7VY      -0.002633
     22 H9          -3.7770     0.0190     0.0750 h1         1 7VY      -0.002633
     23 H10         -2.4090     0.8980    -0.6210 h1         1 7VY      -0.002633
     24 H11         -0.5360     0.0050     3.3410 ha         1 7VY       0.120000
     25 H12          3.0880    -0.5080     3.5670 hc         1 7VY       0.020700
     26 H13          1.5590    -0.5080     4.4570 hc         1 7VY       0.020700
     27 H14          1.4600     1.9860     4.1890 hc         1 7VY       0.045700
     28 H15          3.9830     0.8810     5.4790 hc         1 7VY       0.014200
     29 H16          2.3880     1.0060     6.2450 hc         1 7VY       0.014200
     30 H17          2.4440     3.4520     6.0000 hc         1 7VY       0.019200
     31 H18          3.8790     2.8980     6.8820 hc         1 7VY       0.019200
     32 H19          4.1580     3.9690     2.8830 hn         1 7VY       0.249800
     33 H4           5.1970     2.9800     4.8000 h1         1 7VY       0.003200
     34 C15         -2.7040     0.0140    -0.0690 c3         1 7VY       0.244700
@<TRIPOS>BOND
     1     1     2 ar  
     2     1     8 ar  
     3     1    15 1   
     4     2     3 ar  
     5     2    16 1   
     6     3     6 ar  
     7     3    17 1   
     8     4    12 1   
     9     4    13 1   
    10     4    18 1   
    11     4    33 1   
    12     5    10 1   
    13     5    13 1   
    14     5    19 1   
    15     5    20 1   
    16     6     7 ar  
    17     6     9 1   
    18     7     8 ar  
    19     7    24 1   
    20     8    14 1   
    21     9    10 1   
    22     9    25 1   
    23     9    26 1   
    24    10    11 1   
    25    10    27 1   
    26    11    12 1   
    27    11    28 1   
    28    11    29 1   
    29    12    30 1   
    30    12    31 1   
    31    13    32 1   
    32    14    34 1   
    33    21    34 1   
    34    22    34 1   
    35    23    34 1   
@<TRIPOS>SUBSTRUCTURE
     1 7VY         1 TEMP              0 ****  ****    0 ROOT
