@<TRIPOS>MOLECULE
molecule
   55    58     1     0     0
SMALL
bcc


@<TRIPOS>ATOM
      1 OAO          0.0000     0.0000     0.0000 o          1 7W0      -0.835800
      2 CAN          1.3420     0.0000     0.0000 c          1 7W0       0.907600
      3 OAP          1.9470     0.0000     1.0460 o          1 7W0      -0.835800
      4 CAM          2.0960    -0.0020    -1.3060 c3         1 7W0       0.017400
      5 OAK          3.5010    -0.0020    -1.0440 os         1 7W0      -0.321900
      6 CAA          4.3290    -0.0030    -2.1210 ca         1 7W0       0.193100
      7 CAB          3.8050     0.0020    -3.4030 ca         1 7W0      -0.239000
      8 CAC          4.6490     0.0020    -4.5010 ca         1 7W0      -0.057000
      9 CAD          6.0180    -0.0040    -4.3360 ca         1 7W0      -0.190000
     10 CAE          6.5660    -0.0090    -3.0580 ca         1 7W0      -0.006200
     11 CAF          5.7130    -0.0040    -1.9440 ca         1 7W0      -0.096800
     12 CAI          6.5950    -0.0040    -0.7610 cc         1 7W0      -0.259400
     13 CAL          6.1810    -0.0050     0.6420 c          1 7W0       0.587300
     14 OAS          6.0960     1.0450     1.2510 o          1 7W0      -0.450100
     15 CAQ          5.8650    -1.2910     1.3260 c          1 7W0       0.404100
     16 OAT          6.0370    -2.3440     0.7480 o          1 7W0      -0.376100
     17 NAR          5.3860    -1.2850     2.5860 nz         1 7W0      -0.681400
     18 CAH          7.8890    -0.0050    -1.2450 cd         1 7W0      -0.000300
     19 CAJ          9.1350    -0.0060    -0.3970 c3         1 7W0      -0.039900
     20 NAG          7.8660    -0.0160    -2.5900 na         1 7W0      -0.039400
     21 CAU          9.0570    -0.0180    -3.4430 c3         1 7W0       0.092600
     22 CAV          9.4000     1.3970    -3.8320 ca         1 7W0      -0.115300
     23 CAW          8.6990     2.4540    -3.2850 ca         1 7W0      -0.114000
     24 CAX          9.0130     3.7530    -3.6390 ca         1 7W0      -0.119000
     25 CAY         10.0300     4.0020    -4.5430 ca         1 7W0      -0.122000
     26 CAZ         10.7370     2.9540    -5.0970 ca         1 7W0      -0.113000
     27 CBA         10.4290     1.6420    -4.7390 cp         1 7W0      -0.033000
     28 CBB         11.1860     0.5120    -5.3290 cp         1 7W0      -0.048000
     29 CBC         11.8300    -0.4070    -4.5020 ca         1 7W0      -0.120000
     30 CBD         12.5330    -1.4570    -5.0560 ca         1 7W0      -0.125500
     31 CBE         12.5980    -1.5990    -6.4310 ca         1 7W0      -0.123000
     32 CBF         11.9610    -0.6910    -7.2570 ca         1 7W0      -0.125500
     33 CBG         11.2500     0.3600    -6.7120 ca         1 7W0      -0.120000
     34 H2           1.8350    -0.8870    -1.8730 h1         1 7W0       0.042200
     35 H3           1.8350     0.8820    -1.8750 h1         1 7W0       0.042200
     36 H4           2.7310     0.0070    -3.5470 ha         1 7W0       0.159000
     37 H5           4.2290     0.0060    -5.5000 ha         1 7W0       0.137000
     38 H6           6.6670    -0.0040    -5.2030 ha         1 7W0       0.131000
     39 H7           6.1490    -1.2340     3.2320 hn         1 7W0       0.482800
     40 H8           4.8660    -2.1240     2.7490 hn         1 7W0       0.482800
     41 H9           9.7930     0.7910    -0.7210 hc         1 7W0       0.054033
     42 H10          9.6410    -0.9580    -0.5010 hc         1 7W0       0.054033
     43 H11          8.8650     0.1480     0.6410 hc         1 7W0       0.054033
     44 H12          9.8880    -0.4550    -2.9020 h1         1 7W0       0.077700
     45 H13          8.8610    -0.6000    -4.3360 h1         1 7W0       0.077700
     46 H14          7.9020     2.2650    -2.5760 ha         1 7W0       0.150000
     47 H15          8.4600     4.5780    -3.2080 ha         1 7W0       0.139000
     48 H16         10.2700     5.0220    -4.8190 ha         1 7W0       0.135000
     49 H17         11.5350     3.1510    -5.8030 ha         1 7W0       0.139000
     50 H18         11.7790    -0.2960    -3.4260 ha         1 7W0       0.133000
     51 H19         13.0340    -2.1710    -4.4140 ha         1 7W0       0.133000
     52 H20         13.1530    -2.4230    -6.8620 ha         1 7W0       0.133000
     53 H21         12.0130    -0.8080    -8.3320 ha         1 7W0       0.133000
     54 H22         10.7520     1.0700    -7.3600 ha         1 7W0       0.133000
     55 HAR3         4.7540    -0.5170     2.7000 hn         1 7W0       0.482800
@<TRIPOS>BOND
     1    25    26 ar  
     2    25    24 ar  
     3    26    27 ar  
     4    24    23 ar  
     5    29    30 ar  
     6    29    28 ar  
     7    30    31 ar  
     8     8     7 ar  
     9     8     9 ar  
    10    27    28 1   
    11    27    22 ar  
    12    28    33 ar  
    13    31    32 ar  
    14     7     6 ar  
    15    23    22 ar  
    16     9    10 ar  
    17     3     2 1   
    18    33    32 ar  
    19     4     2 1   
    20     4     5 1   
    21    22    21 1   
    22     2     1 1   
    23     6     5 1   
    24     6    11 ar  
    25    10    11 ar  
    26    10    20 1   
    27    11    12 1   
    28    21    20 1   
    29    20    18 1   
    30    12    18 2   
    31    12    13 1   
    32    18    19 1   
    33    13    14 2   
    34    13    15 1   
    35    16    15 2   
    36    15    17 1   
    37     4    34 1   
    38     4    35 1   
    39     7    36 1   
    40     8    37 1   
    41     9    38 1   
    42    17    39 1   
    43    17    40 1   
    44    19    41 1   
    45    19    42 1   
    46    19    43 1   
    47    21    44 1   
    48    21    45 1   
    49    23    46 1   
    50    24    47 1   
    51    25    48 1   
    52    26    49 1   
    53    29    50 1   
    54    30    51 1   
    55    31    52 1   
    56    32    53 1   
    57    33    54 1   
    58    55    17 1   
@<TRIPOS>SUBSTRUCTURE
     1 7W0         1 TEMP              0 ****  ****    0 ROOT
