@<TRIPOS>MOLECULE
7W0
   55    58     1     0     0
SMALL
bcc


@<TRIPOS>ATOM
      1 OAO          0.0000     0.0000     0.0000 o          1 7W0      -0.893300
      2 CAN          1.3420     0.0000     0.0000 c          1 7W0       0.991600
      3 OAP          1.9470     0.0000     1.0460 o          1 7W0      -0.893300
      4 CAM          2.0960    -0.0020    -1.3060 c3         1 7W0       0.085400
      5 OAK          3.5010    -0.0020    -1.0440 os         1 7W0      -0.298900
      6 CAA          4.3290    -0.0030    -2.1210 ca         1 7W0       0.204100
      7 CAB          3.8050     0.0020    -3.4030 ca         1 7W0      -0.227000
      8 CAC          4.6490     0.0020    -4.5010 ca         1 7W0      -0.026000
      9 CAD          6.0180    -0.0040    -4.3360 ca         1 7W0      -0.158000
     10 CAE          6.5660    -0.0090    -3.0580 ca         1 7W0      -0.188200
     11 CAF          5.7130    -0.0040    -1.9440 ca         1 7W0      -0.084800
     12 CAI          6.5950    -0.0040    -0.7610 cc         1 7W0      -0.273400
     13 CAL          6.1810    -0.0050     0.6420 c          1 7W0       0.648300
     14 OAS          6.0960     1.0450     1.2510 o          1 7W0      -0.486100
     15 CAQ          5.8650    -1.2910     1.3260 c          1 7W0       0.235100
     16 OAT          6.0370    -2.3440     0.7480 o          1 7W0      -0.380100
     17 NAR          5.3860    -1.2850     2.5860 nz         1 7W0       0.192600
     18 CAH          7.8890    -0.0050    -1.2450 cd         1 7W0      -0.195300
     19 CAJ          9.1350    -0.0060    -0.3970 c3         1 7W0       0.087100
     20 NAG          7.8660    -0.0160    -2.5900 na         1 7W0       0.453600
     21 CAU          9.0570    -0.0180    -3.4430 c3         1 7W0      -0.004400
     22 CAV          9.4000     1.3970    -3.8320 ca         1 7W0      -0.119300
     23 CAW          8.6990     2.4540    -3.2850 ca         1 7W0      -0.106000
     24 CAX          9.0130     3.7530    -3.6390 ca         1 7W0      -0.085000
     25 CAY         10.0300     4.0020    -4.5430 ca         1 7W0      -0.094000
     26 CAZ         10.7370     2.9540    -5.0970 ca         1 7W0      -0.085000
     27 CBA         10.4290     1.6420    -4.7390 cp         1 7W0      -0.023000
     28 CBB         11.1860     0.5120    -5.3290 cp         1 7W0      -0.041000
     29 CBC         11.8300    -0.4070    -4.5020 ca         1 7W0      -0.097500
     30 CBD         12.5330    -1.4570    -5.0560 ca         1 7W0      -0.097000
     31 CBE         12.5980    -1.5990    -6.4310 ca         1 7W0      -0.097000
     32 CBF         11.9610    -0.6910    -7.2570 ca         1 7W0      -0.097000
     33 CBG         11.2500     0.3600    -6.7120 ca         1 7W0      -0.097500
     34 H2           1.8350    -0.8870    -1.8730 h1         1 7W0       0.009200
     35 H3           1.8350     0.8820    -1.8750 h1         1 7W0       0.009200
     36 H4           2.7310     0.0070    -3.5470 ha         1 7W0       0.142000
     37 H5           4.2290     0.0060    -5.5000 ha         1 7W0       0.103000
     38 H6           6.6670    -0.0040    -5.2030 ha         1 7W0       0.108000
     39 H7           6.1490    -1.2340     3.2320 hn         1 7W0       0.253133
     40 H8           4.8660    -2.1240     2.7490 hn         1 7W0       0.253133
     41 H9           9.7930     0.7910    -0.7210 hc         1 7W0       0.011367
     42 H10          9.6410    -0.9580    -0.5010 hc         1 7W0       0.011367
     43 H11          8.8650     0.1480     0.6410 hc         1 7W0       0.011367
     44 H12          9.8880    -0.4550    -2.9020 h1         1 7W0       0.051700
     45 H13          8.8610    -0.6000    -4.3360 h1         1 7W0       0.051700
     46 H14          7.9020     2.2650    -2.5760 ha         1 7W0       0.125000
     47 H15          8.4600     4.5780    -3.2080 ha         1 7W0       0.110000
     48 H16         10.2700     5.0220    -4.8190 ha         1 7W0       0.107000
     49 H17         11.5350     3.1510    -5.8030 ha         1 7W0       0.112000
     50 H18         11.7790    -0.2960    -3.4260 ha         1 7W0       0.108500
     51 H19         13.0340    -2.1710    -4.4140 ha         1 7W0       0.105000
     52 H20         13.1530    -2.4230    -6.8620 ha         1 7W0       0.105000
     53 H21         12.0130    -0.8080    -8.3320 ha         1 7W0       0.105000
     54 H22         10.7520     1.0700    -7.3600 ha         1 7W0       0.108500
     55 HAR3         4.7540    -0.5170     2.7000 hn         1 7W0       0.253133
@<TRIPOS>BOND
     1     1     2 1   
     2     2     3 1   
     3     2     4 1   
     4     4     5 1   
     5     4    34 1   
     6     4    35 1   
     7     5     6 1   
     8     6     7 ar  
     9     6    11 ar  
    10     7     8 ar  
    11     7    36 1   
    12     8     9 ar  
    13     8    37 1   
    14     9    10 ar  
    15     9    38 1   
    16    10    11 ar  
    17    10    20 1   
    18    11    12 1   
    19    12    13 1   
    20    12    18 2   
    21    13    14 2   
    22    13    15 1   
    23    15    16 2   
    24    15    17 1   
    25    17    39 1   
    26    17    40 1   
    27    17    55 1   
    28    18    19 1   
    29    18    20 1   
    30    19    41 1   
    31    19    42 1   
    32    19    43 1   
    33    20    21 1   
    34    21    22 1   
    35    21    44 1   
    36    21    45 1   
    37    22    23 ar  
    38    22    27 ar  
    39    23    24 ar  
    40    23    46 1   
    41    24    25 ar  
    42    24    47 1   
    43    25    26 ar  
    44    25    48 1   
    45    26    27 ar  
    46    26    49 1   
    47    27    28 1   
    48    28    29 ar  
    49    28    33 ar  
    50    29    30 ar  
    51    29    50 1   
    52    30    31 ar  
    53    30    51 1   
    54    31    32 ar  
    55    31    52 1   
    56    32    33 ar  
    57    32    53 1   
    58    33    54 1   
@<TRIPOS>SUBSTRUCTURE
     1 7W0         1 TEMP              0 ****  ****    0 ROOT
