@<TRIPOS>MOLECULE
molecule
   22    23     1     0     0
SMALL
bcc


@<TRIPOS>ATOM
      1 C11          0.0000     0.0000     0.0000 ca         1 7W1       0.208600
      2 C01          2.1440     0.0020    -1.3020 c3         1 7W1      -0.033800
      3 C02          1.3870     0.0000     0.0000 ca         1 7W1      -0.231600
      4 C03          2.0740     0.0000     1.2060 ca         1 7W1       0.439200
      5 N04          1.4490    -0.0020     2.3600 nb         1 7W1      -0.687000
      6 C05          0.1130    -0.0030     2.4360 ca         1 7W1       0.419600
      7 C06         -0.5420    -0.0040     3.6800 ca         1 7W1      -0.165300
      8 C07         -1.9020    -0.0050     3.7260 ca         1 7W1      -0.121000
      9 C08         -2.6610    -0.0040     2.5590 ca         1 7W1      -0.133000
     10 C09         -2.0610    -0.0020     1.3350 ca         1 7W1      -0.103000
     11 C10         -0.6620    -0.0020     1.2510 ca         1 7W1      -0.169300
     12 N12         -0.7150     0.0060    -1.1880 nv         1 7W1      -0.984200
     13 H011         1.8810    -0.8800    -1.8740 hc         1 7W1       0.042700
     14 H013         3.2080    -0.0010    -1.1020 hc         1 7W1       0.042700
     15 H012         1.8860     0.8890    -1.8680 hc         1 7W1       0.042700
     16 H031         3.1570     0.0000     1.1950 h4         1 7W1       0.022100
     17 H061         0.0340    -0.0050     4.5970 ha         1 7W1       0.148000
     18 H071        -2.4020    -0.0070     4.6870 ha         1 7W1       0.131000
     19 H081        -3.7430    -0.0050     2.6240 ha         1 7W1       0.129000
     20 H091        -2.6620    -0.0020     0.4340 ha         1 7W1       0.137000
     21 H121        -0.9830    -0.8590    -1.6150 hn         1 7W1       0.433800
     22 H122        -0.9800     0.8750    -1.6070 hn         1 7W1       0.433800
@<TRIPOS>BOND
     1     9    10 ar  
     2     9     8 ar  
     3    10    11 ar  
     4     8     7 ar  
     5    12     1 1   
     6    11     1 ar  
     7    11     6 ar  
     8     7     6 ar  
     9     1     3 ar  
    10     6     5 ar  
    11     3     2 1   
    12     3     4 ar  
    13     5     4 ar  
    14     2    13 1   
    15     2    14 1   
    16     2    15 1   
    17     4    16 1   
    18     7    17 1   
    19     8    18 1   
    20     9    19 1   
    21    10    20 1   
    22    12    21 1   
    23    12    22 1   
@<TRIPOS>SUBSTRUCTURE
     1 7W1         1 TEMP              0 ****  ****    0 ROOT
