@<TRIPOS>MOLECULE
7W1
   22    23     1     0     0
SMALL
bcc


@<TRIPOS>ATOM
      1 C11          0.0000     0.0000     0.0000 ca         1 7W1       0.069600
      2 C01          2.1440     0.0020    -1.3020 c3         1 7W1       0.076200
      3 C02          1.3870     0.0000     0.0000 ca         1 7W1      -0.224600
      4 C03          2.0740     0.0000     1.2060 ca         1 7W1       0.416200
      5 N04          1.4490    -0.0020     2.3600 nb         1 7W1      -0.572000
      6 C05          0.1130    -0.0030     2.4360 ca         1 7W1       0.373600
      7 C06         -0.5420    -0.0040     3.6800 ca         1 7W1      -0.139300
      8 C07         -1.9020    -0.0050     3.7260 ca         1 7W1      -0.098000
      9 C08         -2.6610    -0.0040     2.5590 ca         1 7W1      -0.099000
     10 C09         -2.0610    -0.0020     1.3350 ca         1 7W1      -0.084000
     11 C10         -0.6620    -0.0020     1.2510 ca         1 7W1      -0.157300
     12 N12         -0.7150     0.0060    -1.1880 nv         1 7W1      -0.550200
     13 H011         1.8810    -0.8800    -1.8740 hc         1 7W1       0.008033
     14 H013         3.2080    -0.0010    -1.1020 hc         1 7W1       0.008033
     15 H012         1.8860     0.8890    -1.8680 hc         1 7W1       0.008033
     16 H031         3.1570     0.0000     1.1950 h4         1 7W1      -0.020900
     17 H061         0.0340    -0.0050     4.5970 ha         1 7W1       0.116000
     18 H071        -2.4020    -0.0070     4.6870 ha         1 7W1       0.102000
     19 H081        -3.7430    -0.0050     2.6240 ha         1 7W1       0.101000
     20 H091        -2.6620    -0.0020     0.4340 ha         1 7W1       0.109000
     21 H121        -0.9830    -0.8590    -1.6150 hn         1 7W1       0.277300
     22 H122        -0.9800     0.8750    -1.6070 hn         1 7W1       0.277300
@<TRIPOS>BOND
     1     1     3 ar  
     2     1    11 ar  
     3     1    12 1   
     4     2     3 1   
     5     2    13 1   
     6     2    14 1   
     7     2    15 1   
     8     3     4 ar  
     9     4     5 ar  
    10     4    16 1   
    11     5     6 ar  
    12     6     7 ar  
    13     6    11 ar  
    14     7     8 ar  
    15     7    17 1   
    16     8     9 ar  
    17     8    18 1   
    18     9    10 ar  
    19     9    19 1   
    20    10    11 ar  
    21    10    20 1   
    22    12    21 1   
    23    12    22 1   
@<TRIPOS>SUBSTRUCTURE
     1 7W1         1 TEMP              0 ****  ****    0 ROOT
