@<TRIPOS>MOLECULE
7W3
   48    50     1     0     0
SMALL
bcc


@<TRIPOS>ATOM
      1 OAO          0.0000     0.0000     0.0000 o          1 7W3      -0.892300
      2 CAN          1.2070     0.0000     0.0000 c          1 7W3       0.990600
      3 OAP          1.8790     0.0000     1.1630 o          1 7W3      -0.892300
      4 CAM          1.9630    -0.0050    -1.3040 c3         1 7W3       0.085400
      5 OAL          1.0340    -0.0100    -2.3910 os         1 7W3      -0.298900
      6 CAF          1.5540    -0.0160    -3.6460 ca         1 7W3       0.205100
      7 CAA          2.9260    -0.0220    -3.8320 ca         1 7W3      -0.226000
      8 CAB          3.4560    -0.0280    -5.1130 ca         1 7W3      -0.023000
      9 CAC          2.6300    -0.0280    -6.2160 ca         1 7W3      -0.160000
     10 CAD          1.2480    -0.0220    -6.0520 ca         1 7W3      -0.191200
     11 CAE          0.7090    -0.0210    -4.7570 ca         1 7W3      -0.084800
     12 CAI         -0.7570    -0.0210    -4.9290 cc         1 7W3      -0.269400
     13 CAK         -1.7660    -0.0160    -3.8710 c          1 7W3       0.649300
     14 OAS         -2.2490    -1.0630    -3.4860 o          1 7W3      -0.486100
     15 CAQ         -2.2020     1.2740    -3.2630 c          1 7W3       0.233100
     16 OAT         -1.7910     2.3260    -3.7100 o          1 7W3      -0.379100
     17 NAR         -3.0530     1.2740    -2.2190 nz         1 7W3       0.195600
     18 CAH         -0.9830    -0.0270    -6.2930 cd         1 7W3      -0.197300
     19 CAJ         -2.3400    -0.0300    -6.9480 c3         1 7W3       0.087100
     20 NAG          0.1940    -0.0200    -6.9450 na         1 7W3       0.453600
     21 CAU          0.3380    -0.0240    -8.4020 c3         1 7W3      -0.023400
     22 CAV          0.4990    -1.4430    -8.8870 ca         1 7W3      -0.064300
     23 CBA          0.3750    -2.4950    -7.9990 ca         1 7W3      -0.114000
     24 CAZ          0.5230    -3.7950    -8.4420 ca         1 7W3      -0.049000
     25 CAY          0.7930    -4.0450    -9.7750 ca         1 7W3      -0.102000
     26 CAX          0.9160    -2.9930   -10.6630 ca         1 7W3      -0.038000
     27 CAW          0.7630    -1.6920   -10.2200 ca         1 7W3      -0.204300
     28 CBB          0.8960    -0.5460   -11.1890 c3         1 7W3       0.642200
     29 FBD          2.0010     0.2370   -10.8350 f          1 7W3      -0.206967
     30 FBE          1.0760    -1.0470   -12.4820 f          1 7W3      -0.206967
     31 FBC         -0.2620     0.2380   -11.1480 f          1 7W3      -0.206967
     32 H2           2.5850     0.8800    -1.3650 h1         1 7W3       0.009200
     33 H3           2.5860    -0.8890    -1.3570 h1         1 7W3       0.009200
     34 H4           3.5870    -0.0230    -2.9740 ha         1 7W3       0.143000
     35 H5           4.5300    -0.0330    -5.2480 ha         1 7W3       0.104000
     36 H6           3.0560    -0.0330    -7.2110 ha         1 7W3       0.109000
     37 H7          -2.8630     0.4850    -1.6330 hn         1 7W3       0.252800
     38 H8          -3.9940     1.2210    -2.5560 hn         1 7W3       0.252800
     39 H9          -2.3980    -0.8490    -7.6540 hc         1 7W3       0.012367
     40 H10         -3.1060    -0.1500    -6.1910 hc         1 7W3       0.012367
     41 H11         -2.4910     0.9080    -7.4690 hc         1 7W3       0.012367
     42 H12         -0.5430     0.4140    -8.8540 h1         1 7W3       0.060700
     43 H13          1.2110     0.5530    -8.6810 h1         1 7W3       0.060700
     44 H14          0.1630    -2.3000    -6.9540 ha         1 7W3       0.133000
     45 H15          0.4260    -4.6190    -7.7450 ha         1 7W3       0.113000
     46 H16          0.9110    -5.0640   -10.1220 ha         1 7W3       0.115000
     47 H17          1.1260    -3.1890   -11.7080 ha         1 7W3       0.124000
     48 HAR3        -2.9290     2.1130    -1.6880 hn         1 7W3       0.252800
@<TRIPOS>BOND
     1     1     2 1   
     2     2     3 1   
     3     2     4 1   
     4     4     5 1   
     5     4    32 1   
     6     4    33 1   
     7     5     6 1   
     8     6     7 ar  
     9     6    11 ar  
    10     7     8 ar  
    11     7    34 1   
    12     8     9 ar  
    13     8    35 1   
    14     9    10 ar  
    15     9    36 1   
    16    10    11 ar  
    17    10    20 1   
    18    11    12 1   
    19    12    13 1   
    20    12    18 2   
    21    13    14 2   
    22    13    15 1   
    23    15    16 2   
    24    15    17 1   
    25    17    37 1   
    26    17    38 1   
    27    17    48 1   
    28    18    19 1   
    29    18    20 1   
    30    19    39 1   
    31    19    40 1   
    32    19    41 1   
    33    20    21 1   
    34    21    22 1   
    35    21    42 1   
    36    21    43 1   
    37    22    23 ar  
    38    22    27 ar  
    39    23    24 ar  
    40    23    44 1   
    41    24    25 ar  
    42    24    45 1   
    43    25    26 ar  
    44    25    46 1   
    45    26    27 ar  
    46    26    47 1   
    47    27    28 1   
    48    28    29 1   
    49    28    30 1   
    50    28    31 1   
@<TRIPOS>SUBSTRUCTURE
     1 7W3         1 TEMP              0 ****  ****    0 ROOT
