@<TRIPOS>MOLECULE
molecule
   48    50     1     0     0
SMALL
bcc


@<TRIPOS>ATOM
      1 OAO          0.0000     0.0000     0.0000 o          1 7W3      -0.835300
      2 CAN          1.2070     0.0000     0.0000 c          1 7W3       0.907600
      3 OAP          1.8790     0.0000     1.1630 o          1 7W3      -0.835300
      4 CAM          1.9630    -0.0050    -1.3040 c3         1 7W3       0.017400
      5 OAL          1.0340    -0.0100    -2.3910 os         1 7W3      -0.321900
      6 CAF          1.5540    -0.0160    -3.6460 ca         1 7W3       0.194100
      7 CAA          2.9260    -0.0220    -3.8320 ca         1 7W3      -0.238000
      8 CAB          3.4560    -0.0280    -5.1130 ca         1 7W3      -0.055000
      9 CAC          2.6300    -0.0280    -6.2160 ca         1 7W3      -0.192000
     10 CAD          1.2480    -0.0220    -6.0520 ca         1 7W3      -0.008200
     11 CAE          0.7090    -0.0210    -4.7570 ca         1 7W3      -0.095800
     12 CAI         -0.7570    -0.0210    -4.9290 cc         1 7W3      -0.256400
     13 CAK         -1.7660    -0.0160    -3.8710 c          1 7W3       0.588300
     14 OAS         -2.2490    -1.0630    -3.4860 o          1 7W3      -0.450100
     15 CAQ         -2.2020     1.2740    -3.2630 c          1 7W3       0.403100
     16 OAT         -1.7910     2.3260    -3.7100 o          1 7W3      -0.375100
     17 NAR         -3.0530     1.2740    -2.2190 nz         1 7W3      -0.679400
     18 CAH         -0.9830    -0.0270    -6.2930 cd         1 7W3      -0.002300
     19 CAJ         -2.3400    -0.0300    -6.9480 c3         1 7W3      -0.040900
     20 NAG          0.1940    -0.0200    -6.9450 na         1 7W3      -0.040400
     21 CAU          0.3380    -0.0240    -8.4020 c3         1 7W3       0.077600
     22 CAV          0.4990    -1.4430    -8.8870 ca         1 7W3      -0.076300
     23 CBA          0.3750    -2.4950    -7.9990 ca         1 7W3      -0.120000
     24 CAZ          0.5230    -3.7950    -8.4420 ca         1 7W3      -0.091000
     25 CAY          0.7930    -4.0450    -9.7750 ca         1 7W3      -0.128000
     26 CAX          0.9160    -2.9930   -10.6630 ca         1 7W3      -0.079000
     27 CAW          0.7630    -1.6920   -10.2200 ca         1 7W3      -0.178300
     28 CBB          0.8960    -0.5460   -11.1890 c3         1 7W3       0.672200
     29 FBD          2.0010     0.2370   -10.8350 f          1 7W3      -0.223300
     30 FBE          1.0760    -1.0470   -12.4820 f          1 7W3      -0.223300
     31 FBC         -0.2620     0.2380   -11.1480 f          1 7W3      -0.223300
     32 H2           2.5850     0.8800    -1.3650 h1         1 7W3       0.042200
     33 H3           2.5860    -0.8890    -1.3570 h1         1 7W3       0.042200
     34 H4           3.5870    -0.0230    -2.9740 ha         1 7W3       0.160000
     35 H5           4.5300    -0.0330    -5.2480 ha         1 7W3       0.138000
     36 H6           3.0560    -0.0330    -7.2110 ha         1 7W3       0.132000
     37 H7          -2.8630     0.4850    -1.6330 hn         1 7W3       0.482800
     38 H8          -3.9940     1.2210    -2.5560 hn         1 7W3       0.482800
     39 H9          -2.3980    -0.8490    -7.6540 hc         1 7W3       0.055033
     40 H10         -3.1060    -0.1500    -6.1910 hc         1 7W3       0.055033
     41 H11         -2.4910     0.9080    -7.4690 hc         1 7W3       0.055033
     42 H12         -0.5430     0.4140    -8.8540 h1         1 7W3       0.088700
     43 H13          1.2110     0.5530    -8.6810 h1         1 7W3       0.088700
     44 H14          0.1630    -2.3000    -6.9540 ha         1 7W3       0.159000
     45 H15          0.4260    -4.6190    -7.7450 ha         1 7W3       0.145000
     46 H16          0.9110    -5.0640   -10.1220 ha         1 7W3       0.144000
     47 H17          1.1260    -3.1890   -11.7080 ha         1 7W3       0.154000
     48 HAR3        -2.9290     2.1130    -1.6880 hn         1 7W3       0.482800
@<TRIPOS>BOND
     1    25    26 ar
     2    25    24 ar
     3    26    27 ar
     4    29    28 1
     5    24    23 ar
     6     8     7 ar
     7     8     9 ar
     8    27    28 1
     9    27    22 ar
    10     7     6 ar
    11    28    30 1
    12    28    31 1
    13     4     2 1
    14     4     5 1
    15     1     2 1
    16    23    22 ar
    17     9    10 ar
    18     2     3 1
    19    22    21 1
    20     6     5 1
    21     6    11 ar
    22    10    11 ar
    23    10    20 1
    24    11    12 1
    25    21    20 1
    26    20    18 1
    27    12    18 2
    28    12    13 1
    29    18    19 1
    30    13    14 2
    31    13    15 1
    32    16    15 2
    33    15    17 1
    34     4    32 1
    35     4    33 1
    36     7    34 1
    37     8    35 1
    38     9    36 1
    39    17    37 1
    40    17    38 1
    41    19    39 1
    42    19    40 1
    43    19    41 1
    44    21    42 1
    45    21    43 1
    46    23    44 1
    47    24    45 1
    48    25    46 1
    49    26    47 1
    50    48    17 1
@<TRIPOS>SUBSTRUCTURE
     1 7W3         1 TEMP              0 ****  ****    0 ROOT
