@<TRIPOS>MOLECULE
molecule
   20    21     1     0     0
SMALL
bcc


@<TRIPOS>ATOM
      1 C01          0.0000     0.0000     0.0000 c3         1 7W4      -0.003900
      2 C02          1.5080     0.0000     0.0000 cc         1 7W4       0.082400
      3 N03          2.2880     0.0000     1.0860 nd         1 7W4      -0.314600
      4 C04          3.5570    -0.0010     0.7110 cc         1 7W4      -0.021300
      5 C05          4.7640    -0.0010     1.4400 cc         1 7W4      -0.085000
      6 C06          5.9480    -0.0020     0.7720 cd         1 7W4      -0.131000
      7 C07          5.9550    -0.0030    -0.6340 cd         1 7W4      -0.167000
      8 C08          4.7960    -0.0020    -1.3230 cc         1 7W4      -0.076300
      9 N09          3.5970    -0.0020    -0.6650 na         1 7W4       0.026700
     10 C10          2.2990    -0.0060    -1.1020 cd         1 7W4       0.022900
     11 N11          1.8710    -0.0140    -2.4350 nv         1 7W4      -0.938600
     12 H1          -0.3610    -0.8880    -0.5050 hc         1 7W4       0.047700
     13 H2          -0.3610     0.0060     1.0210 hc         1 7W4       0.047700
     14 H3          -0.3610     0.8810    -0.5160 hc         1 7W4       0.047700
     15 H4           4.7480    -0.0000     2.5230 ha         1 7W4       0.158000
     16 H5           6.8820    -0.0030     1.3200 ha         1 7W4       0.141000
     17 H6           6.8980    -0.0030    -1.1680 ha         1 7W4       0.146000
     18 H7           4.8140    -0.0020    -2.4060 h4         1 7W4       0.159000
     19 H8           1.7300    -0.8830    -2.9100 hn         1 7W4       0.429800
     20 H9           1.7290     0.8500    -2.9190 hn         1 7W4       0.429800
@<TRIPOS>BOND
     1     5     6 2   
     2     5     4 1   
     3     3     4 2   
     4     3     2 1   
     5     6     7 1   
     6     4     9 1   
     7     1     2 1   
     8     2    10 2   
     9     7     8 2   
    10     9    10 1   
    11     9     8 1   
    12    10    11 1   
    13     1    12 1   
    14     1    13 1   
    15     1    14 1   
    16     5    15 1   
    17     6    16 1   
    18     7    17 1   
    19     8    18 1   
    20    11    19 1   
    21    11    20 1   
@<TRIPOS>SUBSTRUCTURE
     1 7W4         1 TEMP              0 ****  ****    0 ROOT
