@<TRIPOS>MOLECULE
7W6
   45    47     1     0     0
SMALL
bcc


@<TRIPOS>ATOM
      1 OAM          0.0000     0.0000     0.0000 o          1 7W6      -0.894800
      2 CAL          1.2090     0.0000     0.0000 c          1 7W6       0.990600
      3 OAN          1.8800     0.0000     1.1620 o          1 7W6      -0.894800
      4 CAK          1.9610    -0.0050    -1.3050 c3         1 7W6       0.091400
      5 OAJ          1.0320    -0.0100    -2.3920 os         1 7W6      -0.300900
      6 CAA          1.5510    -0.0160    -3.6470 ca         1 7W6       0.241100
      7 CAB          2.9220    -0.0170    -3.8340 ca         1 7W6      -0.236000
      8 CAC          3.4500    -0.0210    -5.1150 ca         1 7W6      -0.066000
      9 CAD          2.6230    -0.0260    -6.2180 ca         1 7W6      -0.194000
     10 CAE          1.2410    -0.0250    -6.0530 ca         1 7W6      -0.160200
     11 CAF          0.7050    -0.0270    -4.7570 ca         1 7W6      -0.085800
     12 CAI         -0.7620    -0.0250    -4.9280 cc         1 7W6      -0.269400
     13 CAO         -1.7690    -0.0260    -3.8680 c          1 7W6       0.648300
     14 OAQ         -2.2500    -1.0750    -3.4860 o          1 7W6      -0.487100
     15 CAP         -2.2070     1.2620    -3.2550 c          1 7W6       0.232100
     16 OAS         -1.7990     2.3150    -3.7010 o          1 7W6      -0.378100
     17 NAR         -3.0560     1.2550    -2.2080 nz         1 7W6       0.193600
     18 CAH         -0.9890    -0.0240    -6.2910 cd         1 7W6      -0.195300
     19 CAT         -2.3470    -0.0210    -6.9450 c3         1 7W6       0.079100
     20 NAG          0.1870    -0.0280    -6.9440 na         1 7W6       0.457600
     21 CAU          0.3290    -0.0280    -8.4020 c3         1 7W6       0.006600
     22 CAV          0.3840     1.3920    -8.9020 ca         1 7W6      -0.129300
     23 CBA          1.6000     2.0390    -9.0140 ca         1 7W6      -0.054000
     24 CAZ          1.6510     3.3440    -9.4720 ca         1 7W6       0.032100
     25 BrB          3.3150     4.2280    -9.6270 br         1 7W6      -0.108100
     26 CAY          0.4830     3.9990    -9.8180 ca         1 7W6      -0.068000
     27 CAX         -0.7330     3.3520    -9.7050 ca         1 7W6      -0.096000
     28 CAW         -0.7820     2.0470    -9.2530 ca         1 7W6      -0.089000
     29 H2           2.5840     0.8790    -1.3670 h1         1 7W6       0.008700
     30 H3           2.5840    -0.8900    -1.3590 h1         1 7W6       0.008700
     31 H4           3.8430    -0.0640    -3.2660 ha         1 7W6       0.146000
     32 H5           4.5220    -0.0300    -5.2740 ha         1 7W6       0.102000
     33 H6           3.2830    -0.3900    -6.9960 ha         1 7W6       0.120000
     34 H7          -3.0250     2.1430    -1.7480 hn         1 7W6       0.252800
     35 H8          -3.9860     1.0800    -2.5340 hn         1 7W6       0.252800
     36 H9          -3.0510    -0.5540    -6.3180 hc         1 7W6       0.013367
     37 H10         -2.6820     1.0000    -7.0780 hc         1 7W6       0.013367
     38 H11         -2.2840    -0.5090    -7.9110 hc         1 7W6       0.013367
     39 H12          1.2430    -0.5430    -8.6760 h1         1 7W6       0.044200
     40 H13         -0.5180    -0.5350    -8.8480 h1         1 7W6       0.044200
     41 H14          2.5170     1.5120    -8.7810 ha         1 7W6       0.127000
     42 H15          0.5210     5.0220   -10.1750 ha         1 7W6       0.119000
     43 H16         -1.6470     3.8660    -9.9780 ha         1 7W6       0.109000
     44 H17         -1.7350     1.5400    -9.1650 ha         1 7W6       0.105000
     45 HAR3        -2.7740     0.5510    -1.5550 hn         1 7W6       0.252800
@<TRIPOS>BOND
     1     1     2 1   
     2     2     3 1   
     3     2     4 1   
     4     4     5 1   
     5     4    29 1   
     6     4    30 1   
     7     5     6 1   
     8     6     7 ar  
     9     6    11 ar  
    10     7     8 ar  
    11     7    31 1   
    12     8     9 ar  
    13     8    32 1   
    14     9    10 ar  
    15     9    33 1   
    16    10    11 ar  
    17    10    20 1   
    18    11    12 1   
    19    12    13 1   
    20    12    18 2   
    21    13    14 2   
    22    13    15 1   
    23    15    16 2   
    24    15    17 1   
    25    17    34 1   
    26    17    35 1   
    27    17    45 1   
    28    18    19 1   
    29    18    20 1   
    30    19    36 1   
    31    19    37 1   
    32    19    38 1   
    33    20    21 1   
    34    21    22 1   
    35    21    39 1   
    36    21    40 1   
    37    22    23 ar  
    38    22    28 ar  
    39    23    24 ar  
    40    23    41 1   
    41    24    25 1   
    42    24    26 ar  
    43    26    27 ar  
    44    26    42 1   
    45    27    28 ar  
    46    27    43 1   
    47    28    44 1   
@<TRIPOS>SUBSTRUCTURE
     1 7W6         1 TEMP              0 ****  ****    0 ROOT
