@<TRIPOS>MOLECULE
molecule
   39    41     1     0     0
SMALL
bcc


@<TRIPOS>ATOM
      1 C1           0.0000     0.0000     0.0000 ca         1 7W7      -0.082300
      2 C2           1.3820     0.0000     0.0000 ca         1 7W7      -0.122000
      3 C3           2.0770     0.0000     1.1950 ca         1 7W7      -0.113000
      4 C11         -1.1180     1.4370    -1.6830 c3         1 7W7      -0.086700
      5 C12         -2.0970     2.0040    -0.6510 c3         1 7W7       0.243800
      6 C14         -3.1010     3.4760    -2.4460 c3         1 7W7       0.212800
      7 C15         -2.1110     2.8900    -3.4580 c3         1 7W7      -0.094400
      8 C16         -1.7770     1.4500    -3.0650 c3         1 7W7      -0.081400
      9 C17         -2.4210     4.4250    -0.2680 c2         1 7W7       0.696100
     10 C4           1.3920    -0.0010     2.3950 ca         1 7W7      -0.106000
     11 C5           0.0070    -0.0010     2.4040 ca         1 7W7       0.062100
     12 C6          -0.6930     0.0050     1.2000 ca         1 7W7       0.032100
     13 O7          -0.8920     0.0060     3.4310 os         1 7W7      -0.313900
     14 C8          -2.1390     0.4290     2.8480 c3         1 7W7       0.331200
     15 O9          -2.0310     0.0030     1.4730 os         1 7W7      -0.342900
     16 C10         -0.7540    -0.0010    -1.3050 c3         1 7W7      -0.023100
     17 N13         -2.5360     3.3330    -1.0970 nh         1 7W7      -0.763600
     18 N18         -1.8220     4.3070     0.8840 n2         1 7W7      -0.800100
     19 N19         -2.9380     5.6390    -0.6540 nz         1 7W7      -0.805600
     20 H1           1.9220     0.0000    -0.9390 ha         1 7W7       0.143000
     21 H2           3.1600    -0.0000     1.1900 ha         1 7W7       0.150000
     22 H3          -0.2240     2.0480    -1.7050 hc         1 7W7       0.066700
     23 H4          -2.9550     1.3490    -0.5660 h1         1 7W7       0.091700
     24 H5          -1.6010     2.0900     0.3090 h1         1 7W7       0.091700
     25 H6          -4.0390     2.9380    -2.5040 h1         1 7W7       0.044200
     26 H7          -3.2630     4.5250    -2.6620 h1         1 7W7       0.044200
     27 H8          -1.2050     3.4830    -3.4600 hc         1 7W7       0.065200
     28 H9          -2.5580     2.9000    -4.4450 hc         1 7W7       0.065200
     29 H10         -1.0940     1.0280    -3.7930 hc         1 7W7       0.065200
     30 H11         -2.6880     0.8650    -3.0350 hc         1 7W7       0.065200
     31 H12          1.9390    -0.0010     3.3300 ha         1 7W7       0.154000
     32 H13         -2.2200     1.5080     2.8940 h2         1 7W7       0.071700
     33 H14         -0.1330    -0.4330    -2.0800 hc         1 7W7       0.067700
     34 H15         -1.6590    -0.5870    -1.1980 hc         1 7W7       0.067700
     35 H16         -1.7380     5.1010     1.4880 hn         1 7W7       0.433400
     36 H17         -2.9090     6.2740     0.1190 hn         1 7W7       0.465467
     37 H18         -2.3960     6.0070    -1.4100 hn         1 7W7       0.465467
     38 H19         -2.9630    -0.0850     3.3290 h2         1 7W7       0.071700
     39 H193        -3.8830     5.5170    -0.9610 hn         1 7W7       0.465467
@<TRIPOS>BOND
     1    14    13 1
     2    14    15 1
     3    13    11 1
     4    15    12 1
     5    11    12 ar
     6    11    10 ar
     7    12     1 ar
     8    10     3 ar
     9     1    16 1
    10     1     2 ar
    11    16     4 1
    12     8     4 1
    13     8     7 1
    14     3     2 ar
    15     4     5 1
    16     7     6 1
    17     5    17 1
    18     6    17 1
    19    17     9 1
    20     9    18 2
    21     9    19 1
    22     2    20 1
    23     3    21 1
    24     4    22 1
    25     5    23 1
    26     5    24 1
    27     6    25 1
    28     6    26 1
    29     7    27 1
    30     7    28 1
    31     8    29 1
    32     8    30 1
    33    10    31 1
    34    14    32 1
    35    16    33 1
    36    16    34 1
    37    18    35 1
    38    19    36 1
    39    19    37 1
    40    14    38 1
    41    39    19 1
@<TRIPOS>SUBSTRUCTURE
     1 7W7         1 TEMP              0 ****  ****    0 ROOT
