@<TRIPOS>MOLECULE
7W7
   39    41     1     0     0
SMALL
bcc


@<TRIPOS>ATOM
      1 C1           0.0000     0.0000     0.0000 ca         1 7W7      -0.094300
      2 C2           1.3820     0.0000     0.0000 ca         1 7W7      -0.096000
      3 C3           2.0770     0.0000     1.1950 ca         1 7W7      -0.080000
      4 C11         -1.1180     1.4370    -1.6830 c3         1 7W7      -0.062700
      5 C12         -2.0970     2.0040    -0.6510 c3         1 7W7       0.162800
      6 C14         -3.1010     3.4760    -2.4460 c3         1 7W7       0.167800
      7 C15         -2.1110     2.8900    -3.4580 c3         1 7W7      -0.034400
      8 C16         -1.7770     1.4500    -3.0650 c3         1 7W7      -0.026400
      9 C17         -2.4210     4.4250    -0.2680 c2         1 7W7       0.271100
     10 C4           1.3920    -0.0010     2.3950 ca         1 7W7      -0.078000
     11 C5           0.0070    -0.0010     2.4040 ca         1 7W7       0.068100
     12 C6          -0.6930     0.0050     1.2000 ca         1 7W7       0.028100
     13 O7          -0.8920     0.0060     3.4310 os         1 7W7      -0.296900
     14 C8          -2.1390     0.4290     2.8480 c3         1 7W7       0.433200
     15 O9          -2.0310     0.0030     1.4730 os         1 7W7      -0.328900
     16 C10         -0.7540    -0.0010    -1.3050 c3         1 7W7       0.043900
     17 N13         -2.5360     3.3330    -1.0970 nh         1 7W7      -0.456600
     18 N18         -1.8220     4.3070     0.8840 n2         1 7W7      -0.653100
     19 N19         -2.9380     5.6390    -0.6540 nz         1 7W7       0.185400
     20 H1           1.9220     0.0000    -0.9390 ha         1 7W7       0.117000
     21 H2           3.1600    -0.0000     1.1900 ha         1 7W7       0.119000
     22 H3          -0.2240     2.0480    -1.7050 hc         1 7W7       0.039700
     23 H4          -2.9550     1.3490    -0.5660 h1         1 7W7       0.052700
     24 H5          -1.6010     2.0900     0.3090 h1         1 7W7       0.052700
     25 H6          -3.2630     4.5250    -2.6620 h1         1 7W7       0.016200
     26 H7          -4.0390     2.9380    -2.5040 h1         1 7W7       0.016200
     27 H8          -2.5580     2.9000    -4.4450 hc         1 7W7       0.034700
     28 H9          -1.2050     3.4830    -3.4600 hc         1 7W7       0.034700
     29 H10         -2.6880     0.8650    -3.0350 hc         1 7W7       0.037700
     30 H11         -1.0940     1.0280    -3.7930 hc         1 7W7       0.037700
     31 H12          1.9390    -0.0010     3.3300 ha         1 7W7       0.123000
     32 H13         -2.9630    -0.0850     3.3290 h2         1 7W7       0.012200
     33 H14         -1.6590    -0.5870    -1.1980 hc         1 7W7       0.037200
     34 H15         -0.1330    -0.4330    -2.0800 hc         1 7W7       0.037200
     35 H16         -1.4450     3.4240     1.1660 hn         1 7W7       0.390400
     36 H17         -3.8950     5.5230    -0.9260 hn         1 7W7       0.225467
     37 H18         -2.4120     5.9960    -1.4270 hn         1 7W7       0.225467
     38 H19         -2.2200     1.5080     2.8940 h2         1 7W7       0.012200
     39 H193        -2.8690     6.2870     0.1060 hn         1 7W7       0.225467
@<TRIPOS>BOND
     1     1     2 ar  
     2     1    12 ar  
     3     1    16 1   
     4     2     3 ar  
     5     2    20 1   
     6     3    10 ar  
     7     3    21 1   
     8     4     5 1   
     9     4     8 1   
    10     4    16 1   
    11     4    22 1   
    12     5    17 1   
    13     5    23 1   
    14     5    24 1   
    15     6     7 1   
    16     6    17 1   
    17     6    25 1   
    18     6    26 1   
    19     7     8 1   
    20     7    27 1   
    21     7    28 1   
    22     8    29 1   
    23     8    30 1   
    24     9    17 1   
    25     9    18 2   
    26     9    19 1   
    27    10    11 ar  
    28    10    31 1   
    29    11    12 ar  
    30    11    13 1   
    31    12    15 1   
    32    13    14 1   
    33    14    15 1   
    34    14    32 1   
    35    14    38 1   
    36    16    33 1   
    37    16    34 1   
    38    18    35 1   
    39    19    36 1   
    40    19    37 1   
    41    19    39 1   
@<TRIPOS>SUBSTRUCTURE
     1 7W7         1 TEMP              0 ****  ****    0 ROOT
