@<TRIPOS>MOLECULE
molecule
   51    54     1     0     0
SMALL
bcc


@<TRIPOS>ATOM
      1 OAM          0.0000     0.0000     0.0000 o          1 7W9      -0.835800
      2 CAL          1.2090     0.0000     0.0000 c          1 7W9       0.906600
      3 OAN          1.8800     0.0000     1.1630 o          1 7W9      -0.835800
      4 CAK          1.9620    -0.0060    -1.3050 c3         1 7W9       0.018400
      5 OAJ          1.0340    -0.0110    -2.3920 os         1 7W9      -0.321900
      6 CAA          1.5540    -0.0160    -3.6470 ca         1 7W9       0.194100
      7 CAB          2.9260    -0.0230    -3.8330 ca         1 7W9      -0.238000
      8 CAC          3.4550    -0.0290    -5.1130 ca         1 7W9      -0.056000
      9 CAD          2.6290    -0.0290    -6.2160 ca         1 7W9      -0.191000
     10 CAE          1.2470    -0.0220    -6.0520 ca         1 7W9      -0.007200
     11 CAF          0.7090    -0.0210    -4.7570 ca         1 7W9      -0.095800
     12 CAI         -0.7570    -0.0210    -4.9290 cc         1 7W9      -0.258400
     13 CAO         -1.7660    -0.0150    -3.8700 c          1 7W9       0.587300
     14 OAQ         -2.2490    -1.0620    -3.4860 o          1 7W9      -0.449100
     15 CAP         -2.2020     1.2750    -3.2640 c          1 7W9       0.404100
     16 OAS         -1.7910     2.3260    -3.7110 o          1 7W9      -0.376100
     17 NAR         -3.0520     1.2750    -2.2180 nz         1 7W9      -0.680400
     18 CAH         -0.9840    -0.0270    -6.2920 cd         1 7W9      -0.000300
     19 CBE         -2.3410    -0.0290    -6.9480 c3         1 7W9      -0.038900
     20 NAG          0.1930    -0.0200    -6.9450 na         1 7W9      -0.040400
     21 CAT          0.3370    -0.0250    -8.4030 c3         1 7W9       0.095600
     22 CAU          0.4960    -1.4440    -8.8870 ca         1 7W9      -0.124300
     23 CAZ          0.7730    -1.7010   -10.2400 ca         1 7W9      -0.024000
     24 CBD          0.9070    -0.6560   -11.1690 ca         1 7W9      -0.133000
     25 CBC          1.1760    -0.9430   -12.4720 ca         1 7W9      -0.114000
     26 CBB          1.3190    -2.2610   -12.9020 ca         1 7W9      -0.128000
     27 CBA          1.1950    -3.2990   -12.0300 ca         1 7W9      -0.107000
     28 CAY          0.9190    -3.0420   -10.6760 ca         1 7W9      -0.036000
     29 CAX          0.7840    -4.0870    -9.7480 ca         1 7W9      -0.106000
     30 CAW          0.5160    -3.8000    -8.4440 ca         1 7W9      -0.124000
     31 CAV          0.3780    -2.4820    -8.0140 ca         1 7W9      -0.102000
     32 H2           2.5850    -0.8910    -1.3580 h1         1 7W9       0.042200
     33 H3           2.5850     0.8780    -1.3650 h1         1 7W9       0.042200
     34 H4           3.5870    -0.0230    -2.9750 ha         1 7W9       0.159000
     35 H5           4.5300    -0.0340    -5.2480 ha         1 7W9       0.137000
     36 H6           3.0550    -0.0340    -7.2120 ha         1 7W9       0.131000
     37 H7          -2.8590     0.4880    -1.6310 hn         1 7W9       0.482800
     38 H8          -2.9360     2.1190    -1.6930 hn         1 7W9       0.482800
     39 H9          -2.4300    -0.8960    -7.5920 hc         1 7W9       0.054033
     40 H10         -3.1100    -0.0660    -6.1860 hc         1 7W9       0.054033
     41 H11         -2.4590     0.8720    -7.5370 hc         1 7W9       0.054033
     42 H12          1.2100     0.5520    -8.6820 h1         1 7W9       0.073700
     43 H13         -0.5450     0.4130    -8.8540 h1         1 7W9       0.073700
     44 H14          0.7980     0.3740   -10.8500 ha         1 7W9       0.127000
     45 H15          1.2790    -0.1350   -13.1860 ha         1 7W9       0.131000
     46 H16          1.5330    -2.4620   -13.9440 ha         1 7W9       0.132000
     47 H17          1.3090    -4.3180   -12.3780 ha         1 7W9       0.136000
     48 H18          0.8890    -5.1170   -10.0680 ha         1 7W9       0.137000
     49 H19          0.4180    -4.6080    -7.7290 ha         1 7W9       0.138000
     50 H20          0.1650    -2.2800    -6.9710 ha         1 7W9       0.148000
     51 HAR3        -3.9930     1.2010    -2.5530 hn         1 7W9       0.482800
@<TRIPOS>BOND
     1    27    26 ar
     2    27    28 ar
     3    26    25 ar
     4    29    28 ar
     5    29    30 ar
     6    28    23 ar
     7    25    24 ar
     8    30    31 ar
     9     8     7 ar
    10     8     9 ar
    11    23    24 ar
    12    23    22 ar
    13     7     6 ar
    14     1     2 1
    15     9    10 ar
    16    31    22 ar
    17     4     2 1
    18     4     5 1
    19    22    21 1
    20     2     3 1
    21     6     5 1
    22     6    11 ar
    23    10    11 ar
    24    10    20 1
    25    11    12 1
    26    21    20 1
    27    20    18 1
    28    12    18 2
    29    12    13 1
    30    18    19 1
    31    13    14 2
    32    13    15 1
    33    15    16 2
    34    15    17 1
    35     4    32 1
    36     4    33 1
    37     7    34 1
    38     8    35 1
    39     9    36 1
    40    17    37 1
    41    17    38 1
    42    19    39 1
    43    19    40 1
    44    19    41 1
    45    21    42 1
    46    21    43 1
    47    24    44 1
    48    25    45 1
    49    26    46 1
    50    27    47 1
    51    29    48 1
    52    30    49 1
    53    31    50 1
    54    51    17 1
@<TRIPOS>SUBSTRUCTURE
     1 7W9         1 TEMP              0 ****  ****    0 ROOT
