@<TRIPOS>MOLECULE
molecule
   17    18     1     0     0
SMALL
bcc


@<TRIPOS>ATOM
      1 C10          0.0000     0.0000     0.0000 ca         1 7WA       0.072400
      2 N01          2.1050     0.0020    -1.2080 nv         1 7WA      -0.981200
      3 C02          1.4030     0.0000     0.0000 ca         1 7WA       0.227600
      4 C03          2.0880     0.0000     1.2020 ca         1 7WA      -0.168000
      5 C04          1.3970    -0.0020     2.4040 ca         1 7WA      -0.106000
      6 C05          0.0180    -0.0040     2.4180 ca         1 7WA      -0.141000
      7 C06         -0.6900    -0.0020     1.2230 ca         1 7WA      -0.088200
      8 N07         -2.0320    -0.0080     0.9020 na         1 7WA      -0.273300
      9 C08         -2.1240    -0.0090    -0.4570 cc         1 7WA       0.418700
     10 N09         -0.9360    -0.0060    -0.9830 nd         1 7WA      -0.591100
     11 H1           2.3620     0.8690    -1.6360 hn         1 7WA       0.429800
     12 H2           2.3650    -0.8640    -1.6370 hn         1 7WA       0.429800
     13 H3           3.1710     0.0020     1.2040 ha         1 7WA       0.139000
     14 H4           1.9440    -0.0020     3.3390 ha         1 7WA       0.132000
     15 H5          -0.5140    -0.0050     3.3620 ha         1 7WA       0.125000
     16 H6          -2.7970    -0.0100     1.5480 hn         1 7WA       0.300700
     17 H7          -3.0520    -0.0130    -1.0160 h5         1 7WA       0.071800
@<TRIPOS>BOND
     1     2     3 1   
     2     4     3 ar  
     3     4     5 ar  
     4     3     1 ar  
     5     5     6 ar  
     6     6     7 ar  
     7     1     7 ar  
     8     1    10 1   
     9     7     8 1   
    10    10     9 2   
    11     8     9 1   
    12     2    11 1   
    13     2    12 1   
    14     4    13 1   
    15     5    14 1   
    16     6    15 1   
    17     8    16 1   
    18     9    17 1   
@<TRIPOS>SUBSTRUCTURE
     1 7WA         1 TEMP              0 ****  ****    0 ROOT
