@<TRIPOS>MOLECULE
7WA
   17    18     1     0     0
SMALL
bcc


@<TRIPOS>ATOM
      1 C10          0.0000     0.0000     0.0000 ca         1 7WA       0.048400
      2 N01          2.1050     0.0020    -1.2080 nv         1 7WA      -0.550200
      3 C02          1.4030     0.0000     0.0000 ca         1 7WA       0.096600
      4 C03          2.0880     0.0000     1.2020 ca         1 7WA      -0.137000
      5 C04          1.3970    -0.0020     2.4040 ca         1 7WA      -0.082000
      6 C05          0.0180    -0.0040     2.4180 ca         1 7WA      -0.096000
      7 C06         -0.6900    -0.0020     1.2230 ca         1 7WA      -0.267200
      8 N07         -2.0320    -0.0080     0.9020 na         1 7WA       0.250700
      9 C08         -2.1240    -0.0090    -0.4570 cc         1 7WA       0.238700
     10 N09         -0.9360    -0.0060    -0.9830 nd         1 7WA      -0.510100
     11 H1           2.3620     0.8690    -1.6360 hn         1 7WA       0.273800
     12 H2           2.3650    -0.8640    -1.6370 hn         1 7WA       0.273800
     13 H3           3.1710     0.0020     1.2040 ha         1 7WA       0.110000
     14 H4           1.9440    -0.0020     3.3390 ha         1 7WA       0.102000
     15 H5          -0.5140    -0.0050     3.3620 ha         1 7WA       0.098000
     16 H6          -2.7970    -0.0100     1.5480 hn         1 7WA       0.126700
     17 H7          -3.0520    -0.0130    -1.0160 h5         1 7WA       0.025800
@<TRIPOS>BOND
     1     1     3 ar  
     2     1     7 ar  
     3     1    10 1   
     4     2     3 1   
     5     2    11 1   
     6     2    12 1   
     7     3     4 ar  
     8     4     5 ar  
     9     4    13 1   
    10     5     6 ar  
    11     5    14 1   
    12     6     7 ar  
    13     6    15 1   
    14     7     8 1   
    15     8     9 1   
    16     8    16 1   
    17     9    10 2   
    18     9    17 1   
@<TRIPOS>SUBSTRUCTURE
     1 7WA         1 TEMP              0 ****  ****    0 ROOT
