@<TRIPOS>MOLECULE
molecule
   22    24     1     0     0
SMALL
bcc


@<TRIPOS>ATOM
      1 NAH          0.0000     0.0000     0.0000 na         1 7WB      -0.220100
      2 CAC          1.3570     0.0000     0.0000 cc         1 7WB      -0.079300
      3 CAD          1.9580     0.0000     1.1850 cd         1 7WB      -0.115100
      4 SAJ          0.6450     0.0010     2.3770 ss         1 7WB      -0.143800
      5 CAK         -0.6160     0.0010     1.2040 cc         1 7WB       0.205600
      6 CAL         -2.0050     0.0010     1.4490 cd         1 7WB      -0.308800
      7 CAN         -3.0890     0.0010     0.4560 ca         1 7WB      -0.100800
      8 CAG         -3.1410    -0.0010    -0.9360 ca         1 7WB      -0.121000
      9 CAB         -4.3540    -0.0010    -1.5660 ca         1 7WB      -0.126000
     10 CAA         -5.5330    -0.0000    -0.8310 ca         1 7WB      -0.142000
     11 CAF         -5.5120     0.0010     0.5330 ca         1 7WB      -0.074000
     12 CAM         -4.2850     0.0010     1.2110 ca         1 7WB       0.112400
     13 NAI         -3.9540     0.0020     2.5140 nc         1 7WB      -0.580100
     14 CAE         -2.6530    -0.0050     2.6950 cd         1 7WB       0.461500
     15 HAH         -0.5220    -0.0000    -0.8540 hn         1 7WB       0.317700
     16 HAC          1.8990    -0.3210    -0.8820 h4         1 7WB       0.186000
     17 HAD          2.8370     0.6120     1.3470 h4         1 7WB       0.200000
     18 HAE         -2.2200     0.5270     3.5330 h4         1 7WB       0.039800
     19 HAG         -2.2260    -0.0020    -1.5150 ha         1 7WB       0.096000
     20 HAB         -4.3960    -0.0020    -2.6490 ha         1 7WB       0.123000
     21 HAA         -6.4840    -0.0000    -1.3490 ha         1 7WB       0.128000
     22 HAF         -6.4410     0.0020     1.0910 ha         1 7WB       0.139000
@<TRIPOS>BOND
     1     1     2 1   
     2     1     5 1   
     3     2     3 2   
     4     3     4 1   
     5     4     5 1   
     6     5     6 2   
     7     6     7 1   
     8     6    14 1   
     9     7     8 ar  
    10     7    12 ar  
    11     8     9 ar  
    12     9    10 ar  
    13    10    11 ar  
    14    11    12 ar  
    15    12    13 1   
    16    13    14 2   
    17     1    15 1   
    18     2    16 1   
    19     3    17 1   
    20    14    18 1   
    21     8    19 1   
    22     9    20 1   
    23    10    21 1   
    24    11    22 1   
@<TRIPOS>SUBSTRUCTURE
     1 7WB         1 TEMP              0 ****  ****    0 ROOT
