@<TRIPOS>MOLECULE
molecule
   37    40     1     0     0
SMALL
bcc


@<TRIPOS>ATOM
      1 C1           0.0000     0.0000     0.0000 ca         1 7WD       0.056100
      2 C2           1.3930     0.0000     0.0000 ca         1 7WD       0.051100
      3 C3           2.0810     0.0000     1.2020 ca         1 7WD      -0.071300
      4 C11          4.0990     1.4370     1.0820 c3         1 7WD      -0.086700
      5 C12          5.6250     1.4260     0.9620 c3         1 7WD      -0.085400
      6 C13          6.1160     2.8300     0.5820 c3         1 7WD       0.002900
      7 C14          5.4580     3.8200     1.5100 cc         1 7WD      -0.251900
      8 C16          3.6830     2.2350     2.3220 c3         1 7WD       0.048300
      9 C17          5.7880     5.0930     1.7440 cc         1 7WD       0.338200
     10 C19          4.0600     4.6580     2.9840 cd         1 7WD       0.672400
     11 C4           1.3860     0.0010     2.3970 ca         1 7WD      -0.132000
     12 C5           0.0050     0.0010     2.3970 ca         1 7WD      -0.122000
     13 C6          -0.6890     0.0060     1.2000 ca         1 7WD      -0.115000
     14 O7          -0.4350    -0.0010    -1.2940 os         1 7WD      -0.324900
     15 C8           0.6970    -0.4130    -2.0810 c3         1 7WD       0.331200
     16 O9           1.8300    -0.0010    -1.2930 os         1 7WD      -0.325900
     17 C10          3.5880    -0.0000     1.2070 c3         1 7WD      -0.027100
     18 N15          4.3590     3.5330     2.2920 na         1 7WD      -0.215900
     19 N18          4.9240     5.5910     2.6470 nc         1 7WD      -0.742000
     20 N20          3.0230     4.8010     3.8900 nv         1 7WD      -1.025500
     21 H1           3.6740     1.8990     0.2000 hc         1 7WD       0.076700
     22 H2           5.8960     0.7460     0.1630 hc         1 7WD       0.052200
     23 H3           6.0380     1.1750     1.9310 hc         1 7WD       0.052200
     24 H4           7.1870     2.8730     0.7390 hc         1 7WD       0.059700
     25 H5           5.7930     3.0440    -0.4300 hc         1 7WD       0.059700
     26 H6           4.0190     1.6970     3.2010 h1         1 7WD       0.059700
     27 H7           2.6150     2.4070     2.2740 h1         1 7WD       0.059700
     28 H8           6.6090     5.6310     1.2850 h4         1 7WD       0.037100
     29 H9           1.9260    -0.0030     3.3370 ha         1 7WD       0.138000
     30 H10         -0.5360     0.0010     3.3350 ha         1 7WD       0.140000
     31 H11         -1.7730     0.0060     1.2020 ha         1 7WD       0.146000
     32 H12          0.6980     0.1130    -3.0290 h2         1 7WD       0.072700
     33 H13          3.9520    -0.5860     0.3710 hc         1 7WD       0.057700
     34 H14          3.9460    -0.4320     2.1340 hc         1 7WD       0.057700
     35 H15          2.5510     5.6800     3.9760 hn         1 7WD       0.441800
     36 H16          2.7670     4.0360     4.4830 hn         1 7WD       0.441800
     37 H17          0.6970    -1.4910    -2.1900 h2         1 7WD       0.072700
@<TRIPOS>BOND
     1    20    10 1   
     2    19    10 2   
     3    19     9 1   
     4    10    18 1   
     5     9     7 2   
     6    18     7 1   
     7    18     8 1   
     8     7     6 1   
     9     8     4 1   
    10     6     5 1   
    11     4     5 1   
    12     4    17 1   
    13    11    12 ar  
    14    11     3 ar  
    15    12    13 ar  
    16     3    17 1   
    17     3     2 ar  
    18    13     1 ar  
    19     2     1 ar  
    20     2    16 1   
    21     1    14 1   
    22    16    15 1   
    23    14    15 1   
    24     4    21 1   
    25     5    22 1   
    26     5    23 1   
    27     6    24 1   
    28     6    25 1   
    29     8    26 1   
    30     8    27 1   
    31     9    28 1   
    32    11    29 1   
    33    12    30 1   
    34    13    31 1   
    35    15    32 1   
    36    17    33 1   
    37    17    34 1   
    38    20    35 1   
    39    20    36 1   
    40    15    37 1   
@<TRIPOS>SUBSTRUCTURE
     1 7WD         1 TEMP              0 ****  ****    0 ROOT
