@<TRIPOS>MOLECULE
7WD
   37    40     1     0     0
SMALL
bcc


@<TRIPOS>ATOM
      1 C1           0.0000     0.0000     0.0000 ca         1 7WD       0.063100
      2 C2           1.3930     0.0000     0.0000 ca         1 7WD       0.060100
      3 C3           2.0810     0.0000     1.2020 ca         1 7WD      -0.081300
      4 C11          4.0990     1.4370     1.0820 c3         1 7WD      -0.062700
      5 C12          5.6250     1.4260     0.9620 c3         1 7WD      -0.039400
      6 C13          6.1160     2.8300     0.5820 c3         1 7WD       0.089900
      7 C14          5.4580     3.8200     1.5100 cc         1 7WD      -0.434900
      8 C16          3.6830     2.2350     2.3220 c3         1 7WD      -0.041700
      9 C17          5.7880     5.0930     1.7440 cd         1 7WD       0.353200
     10 C19          4.0600     4.6580     2.9840 cc         1 7WD       0.337400
     11 C4           1.3860     0.0010     2.3970 ca         1 7WD      -0.108000
     12 C5           0.0050     0.0010     2.3970 ca         1 7WD      -0.096000
     13 C6          -0.6890     0.0060     1.2000 ca         1 7WD      -0.089000
     14 O7          -0.4350    -0.0010    -1.2940 os         1 7WD      -0.312900
     15 C8           0.6970    -0.4130    -2.0810 c3         1 7WD       0.431200
     16 O9           1.8300    -0.0010    -1.2930 os         1 7WD      -0.313900
     17 C10          3.5880    -0.0000     1.2070 c3         1 7WD       0.039900
     18 N15          4.3590     3.5330     2.2920 na         1 7WD       0.254100
     19 N18          4.9240     5.5910     2.6470 nd         1 7WD      -0.678000
     20 N20          3.0230     4.8010     3.8900 nv         1 7WD      -0.552500
     21 H1           3.6740     1.8990     0.2000 hc         1 7WD       0.050700
     22 H2           5.8960     0.7460     0.1630 hc         1 7WD       0.026200
     23 H3           6.0380     1.1750     1.9310 hc         1 7WD       0.026200
     24 H4           7.1870     2.8730     0.7390 hc         1 7WD       0.024700
     25 H5           5.7930     3.0440    -0.4300 hc         1 7WD       0.024700
     26 H6           4.0190     1.6970     3.2010 h1         1 7WD       0.036200
     27 H7           2.6150     2.4070     2.2740 h1         1 7WD       0.036200
     28 H8           6.6090     5.6310     1.2850 h4         1 7WD      -0.000900
     29 H9           1.9260    -0.0030     3.3370 ha         1 7WD       0.111000
     30 H10         -0.5360     0.0010     3.3350 ha         1 7WD       0.109000
     31 H11         -1.7730     0.0060     1.2020 ha         1 7WD       0.114000
     32 H12          0.6980     0.1130    -3.0290 h2         1 7WD       0.015700
     33 H13          3.9520    -0.5860     0.3710 hc         1 7WD       0.027200
     34 H14          3.9460    -0.4320     2.1340 hc         1 7WD       0.027200
     35 H15          2.5510     5.6800     3.9760 hn         1 7WD       0.269800
     36 H16          2.7670     4.0360     4.4830 hn         1 7WD       0.269800
     37 H17          0.6970    -1.4910    -2.1900 h2         1 7WD       0.015700
@<TRIPOS>BOND
     1     1     2 ar  
     2     1    13 ar  
     3     1    14 1   
     4     2     3 ar  
     5     2    16 1   
     6     3    11 ar  
     7     3    17 1   
     8     4     5 1   
     9     4     8 1   
    10     4    17 1   
    11     4    21 1   
    12     5     6 1   
    13     5    22 1   
    14     5    23 1   
    15     6     7 1   
    16     6    24 1   
    17     6    25 1   
    18     7     9 2   
    19     7    18 1   
    20     8    18 1   
    21     8    26 1   
    22     8    27 1   
    23     9    19 1   
    24     9    28 1   
    25    10    18 1   
    26    10    19 2   
    27    10    20 1   
    28    11    12 ar  
    29    11    29 1   
    30    12    13 ar  
    31    12    30 1   
    32    13    31 1   
    33    14    15 1   
    34    15    16 1   
    35    15    32 1   
    36    15    37 1   
    37    17    33 1   
    38    17    34 1   
    39    20    35 1   
    40    20    36 1   
@<TRIPOS>SUBSTRUCTURE
     1 7WD         1 TEMP              0 ****  ****    0 ROOT
