@<TRIPOS>MOLECULE
molecule
   42    42     1     0     0
SMALL
bcc


@<TRIPOS>ATOM
      1 O1           0.0000     0.0000     0.0000 o          1 7WF      -0.711200
      2 S1           1.4210     0.0000     0.0000 s6         1 7WF       1.261800
      3 O2           2.1540     0.0000     1.2170 o          1 7WF      -0.711200
      4 O3           1.7960    -1.3170    -0.6650 o          1 7WF      -0.711200
      5 C1           2.0580     1.2720    -1.1260 c3         1 7WF      -0.270600
      6 C2           1.7390     2.6580    -0.5610 c3         1 7WF       0.175100
      7 O4           0.3240     2.8050    -0.4280 oh         1 7WF      -0.592800
      8 C3           2.2760     3.7320    -1.5100 c3         1 7WF       0.149300
      9 N1           2.0530     5.0610    -0.9240 n3         1 7WF      -0.722100
     10 C7           3.0210     5.3320     0.1480 c3         1 7WF       0.140550
     11 C6           4.4310     5.3920    -0.4450 c3         1 7WF       0.140550
     12 N2           4.4820     6.4380    -1.4760 n3         1 7WF      -0.722100
     13 C5           3.5140     6.1660    -2.5470 c3         1 7WF       0.140550
     14 C4           2.1050     6.1060    -1.9540 c3         1 7WF       0.140550
     15 H1           3.1310     1.1610    -1.2270 h1         1 7WF       0.080200
     16 H2           1.5900     1.1620    -2.0970 h1         1 7WF       0.080200
     17 H3           2.2060     2.7680     0.4110 h1         1 7WF       0.035200
     18 H4           0.1100     2.9980     0.4700 ho         1 7WF       0.398000
     19 H5           1.7590     3.6650    -2.4590 h1         1 7WF       0.038700
     20 H6           3.3370     3.5790    -1.6650 h1         1 7WF       0.038700
     21 H8           2.7860     6.2820     0.6130 h1         1 7WF       0.045200
     22 H9           2.9730     4.5400     0.8860 h1         1 7WF       0.045200
     23 H10          4.6750     4.4350    -0.8900 h1         1 7WF       0.045200
     24 H11          5.1420     5.6230     0.3390 h1         1 7WF       0.045200
     25 H14          3.7490     5.2170    -3.0130 h1         1 7WF       0.045200
     26 H15          3.5610     6.9580    -3.2840 h1         1 7WF       0.045200
     27 H16          1.3940     5.8750    -2.7380 h1         1 7WF       0.045200
     28 H17          1.8600     7.0630    -1.5090 h1         1 7WF       0.045200
     29 C8           5.8410     6.5770    -2.0180 c3         1 7WF       0.149300
     30 C9           6.7190     7.3160    -1.0050 c3         1 7WF       0.175100
     31 C10          8.1440     7.4290    -1.5540 c3         1 7WF      -0.270600
     32 S2           9.2180     8.1720    -0.2950 s6         1 7WF       1.261800
     33 O5           6.1900     8.6250    -0.7820 oh         1 7WF      -0.592800
     34 O7           9.3910     7.2840     0.8000 o          1 7WF      -0.711200
     35 O8          10.5900     8.2280    -0.9530 o          1 7WF      -0.711200
     36 O6           8.8730     9.5340    -0.0860 o          1 7WF      -0.711200
     37 H7           5.8040     7.1390    -2.9430 h1         1 7WF       0.038700
     38 H12          6.2560     5.5950    -2.2080 h1         1 7WF       0.038700
     39 H13          6.7340     6.7670    -0.0710 h1         1 7WF       0.035200
     40 H19          8.1410     8.0520    -2.4400 h1         1 7WF       0.080200
     41 H20          8.5130     6.4420    -1.8070 h1         1 7WF       0.080200
     42 H21          6.0610     8.7580     0.1430 ho         1 7WF       0.398000
@<TRIPOS>BOND
     1    12    11 1   
     2    12    13 1   
     3    11    10 1   
     4    13    14 1   
     5    10     9 1   
     6    14     9 1   
     7     9     8 1   
     8     8     6 1   
     9     6     7 1   
    10     6     5 1   
    11     3     2 1   
    12     5     2 1   
    13     2     1 1   
    14     2     4 1   
    15     5    15 1   
    16     5    16 1   
    17     6    17 1   
    18     7    18 1   
    19     8    19 1   
    20     8    20 1   
    21    10    21 1   
    22    10    22 1   
    23    11    23 1   
    24    11    24 1   
    25    13    25 1   
    26    13    26 1   
    27    14    27 1   
    28    14    28 1   
    29    12    29 1   
    30    29    30 1   
    31    30    31 1   
    32    31    32 1   
    33    30    33 1   
    34    32    34 1   
    35    32    35 1   
    36    32    36 1   
    37    29    37 1   
    38    29    38 1   
    39    30    39 1   
    40    31    40 1   
    41    31    41 1   
    42    33    42 1   
@<TRIPOS>SUBSTRUCTURE
     1 7WF         1 TEMP              0 ****  ****    0 ROOT
