@<TRIPOS>MOLECULE
7WF
   42    42     1     0     0
SMALL
bcc


@<TRIPOS>ATOM
      1 O1           0.0000     0.0000     0.0000 o          1 7WF      -0.663533
      2 S1           1.4210     0.0000     0.0000 s6         1 7WF       0.960300
      3 O2           2.1540     0.0000     1.2170 o          1 7WF      -0.663533
      4 O3           1.7960    -1.3170    -0.6650 o          1 7WF      -0.663533
      5 C1           2.0580     1.2720    -1.1260 c3         1 7WF      -0.074100
      6 C2           1.7390     2.6580    -0.5610 c3         1 7WF       0.221600
      7 O4           0.3240     2.8050    -0.4280 oh         1 7WF      -0.575300
      8 C3           2.2760     3.7320    -1.5100 c3         1 7WF       0.116300
      9 N1           2.0530     5.0610    -0.9240 n3         1 7WF      -0.534100
     10 C7           3.0210     5.3320     0.1480 c3         1 7WF       0.129300
     11 C6           4.4310     5.3920    -0.4450 c3         1 7WF       0.129300
     12 N2           4.4820     6.4380    -1.4760 n3         1 7WF      -0.534100
     13 C5           3.5140     6.1660    -2.5470 c3         1 7WF       0.129300
     14 C4           2.1050     6.1060    -1.9540 c3         1 7WF       0.129300
     15 H1           3.1310     1.1610    -1.2270 h1         1 7WF       0.054700
     16 H2           1.5900     1.1620    -2.0970 h1         1 7WF       0.054700
     17 H3           2.2060     2.7680     0.4110 h1         1 7WF       0.008700
     18 H4           0.1100     2.9980     0.4700 ho         1 7WF       0.387000
     19 H5           1.7590     3.6650    -2.4590 h1         1 7WF       0.015700
     20 H6           3.3370     3.5790    -1.6650 h1         1 7WF       0.015700
     21 H8           2.7860     6.2820     0.6130 h1         1 7WF       0.020075
     22 H9           2.9730     4.5400     0.8860 h1         1 7WF       0.020075
     23 H10          4.6750     4.4350    -0.8900 h1         1 7WF       0.020075
     24 H11          5.1420     5.6230     0.3390 h1         1 7WF       0.020075
     25 H14          3.7490     5.2170    -3.0130 h1         1 7WF       0.020075
     26 H15          3.5610     6.9580    -3.2840 h1         1 7WF       0.020075
     27 H16          1.3940     5.8750    -2.7380 h1         1 7WF       0.020075
     28 H17          1.8600     7.0630    -1.5090 h1         1 7WF       0.020075
     29 C8           5.8410     6.5770    -2.0180 c3         1 7WF       0.116300
     30 C9           6.7190     7.3160    -1.0050 c3         1 7WF       0.221600
     31 C10          8.1440     7.4290    -1.5540 c3         1 7WF      -0.074100
     32 S2           9.2180     8.1720    -0.2950 s6         1 7WF       0.960300
     33 O5           6.1900     8.6250    -0.7820 oh         1 7WF      -0.575300
     34 O7           9.3910     7.2840     0.8000 o          1 7WF      -0.663533
     35 O8          10.5900     8.2280    -0.9530 o          1 7WF      -0.663533
     36 O6           8.8730     9.5340    -0.0860 o          1 7WF      -0.663533
     37 H7           5.8040     7.1390    -2.9430 h1         1 7WF       0.015700
     38 H12          6.2560     5.5950    -2.2080 h1         1 7WF       0.015700
     39 H13          6.7340     6.7670    -0.0710 h1         1 7WF       0.008700
     40 H19          8.1410     8.0520    -2.4400 h1         1 7WF       0.054700
     41 H20          8.5130     6.4420    -1.8070 h1         1 7WF       0.054700
     42 H21          6.0610     8.7580     0.1430 ho         1 7WF       0.387000
@<TRIPOS>BOND
     1     1     2 1   
     2     2     3 1   
     3     2     4 1   
     4     2     5 1   
     5     5     6 1   
     6     5    15 1   
     7     5    16 1   
     8     6     7 1   
     9     6     8 1   
    10     6    17 1   
    11     7    18 1   
    12     8     9 1   
    13     8    19 1   
    14     8    20 1   
    15     9    10 1   
    16     9    14 1   
    17    10    11 1   
    18    10    21 1   
    19    10    22 1   
    20    11    12 1   
    21    11    23 1   
    22    11    24 1   
    23    12    13 1   
    24    12    29 1   
    25    13    14 1   
    26    13    25 1   
    27    13    26 1   
    28    14    27 1   
    29    14    28 1   
    30    29    30 1   
    31    29    37 1   
    32    29    38 1   
    33    30    31 1   
    34    30    33 1   
    35    30    39 1   
    36    31    32 1   
    37    31    40 1   
    38    31    41 1   
    39    32    34 1   
    40    32    35 1   
    41    32    36 1   
    42    33    42 1   
@<TRIPOS>SUBSTRUCTURE
     1 7WF         1 TEMP              0 ****  ****    0 ROOT
