@<TRIPOS>MOLECULE
molecule
   18    19     1     0     0
SMALL
bcc


@<TRIPOS>ATOM
      1 C01          0.0000     0.0000     0.0000 cc         1 7WG       0.316200
      2 C02          1.3450     0.0000     0.0000 cd         1 7WG      -0.190900
      3 N03          1.7460     0.0000     1.3170 na         1 7WG      -0.308900
      4 C04          0.6170     0.0010     2.0780 cd         1 7WG       0.638400
      5 N05         -0.4210     0.0010     1.2770 nc         1 7WG      -0.697000
      6 N06          0.5730     0.0010     3.4620 nv         1 7WG      -1.043500
      7 C07          2.2410    -0.0010    -1.2110 cx         1 7WG      -0.066400
      8 C08          1.7680     0.7750    -2.4410 cx         1 7WG      -0.127400
      9 C09          1.7540    -0.7550    -2.4500 cx         1 7WG      -0.127400
     10 H011        -0.6350    -0.0000    -0.8780 h4         1 7WG       0.038100
     11 H031         2.6890    -0.0000     1.6520 hn         1 7WG       0.294700
     12 H061         0.5460     0.8680     3.9610 hn         1 7WG       0.439800
     13 H062         0.5450    -0.8660     3.9610 hn         1 7WG       0.439800
     14 H071         3.3150    -0.0110    -1.0670 hc         1 7WG       0.079700
     15 H081         2.5490     1.2390    -3.0300 hc         1 7WG       0.078700
     16 H082         0.7980     1.2500    -2.3490 hc         1 7WG       0.078700
     17 H091         0.7770    -1.2150    -2.3630 hc         1 7WG       0.078700
     18 H092         2.5280    -1.2260    -3.0440 hc         1 7WG       0.078700
@<TRIPOS>BOND
     1     9     8 1
     2     9     7 1
     3     8     7 1
     4     7     2 1
     5     2     3 1
     6     2     1 2
     7     3     4 1
     8     1     5 1
     9     4     5 2
    10     4     6 1
    11     1    10 1
    12     3    11 1
    13     6    12 1
    14     6    13 1
    15     7    14 1
    16     8    15 1
    17     8    16 1
    18     9    17 1
    19     9    18 1
@<TRIPOS>SUBSTRUCTURE
     1 7WG         1 TEMP              0 ****  ****    0 ROOT
