@<TRIPOS>MOLECULE
7WH
   35    36     1     0     0
SMALL
bcc


@<TRIPOS>ATOM
      1 O4           0.0000     0.0000     0.0000 o          1 7WH      -0.590100
      2 C2           1.2130     0.0000     0.0000 c          1 7WH       0.540100
      3 C1           1.9670     0.0000     1.3050 c3         1 7WH       0.141400
      4 O            1.0380    -0.0000     2.3910 os         1 7WH      -0.370600
      5 C            1.6530     0.0000     3.6810 c3         1 7WH       0.248700
      6 N            1.8870    -0.0060    -1.1670 ns         1 7WH      -0.036100
      7 C3           1.1880    -0.1030    -2.3780 ca         1 7WH      -0.132400
      8 C8          -0.0500     0.5040    -2.5140 ca         1 7WH      -0.063000
      9 C7          -0.7420     0.4070    -3.7190 cp         1 7WH      -0.113500
     10 C6          -0.1830    -0.3040    -4.7860 ca         1 7WH       0.148100
     11 O3          -0.8520    -0.4030    -5.9640 oh         1 7WH      -0.461100
     12 C5           1.0560    -0.9070    -4.6390 ca         1 7WH      -0.180000
     13 C4           1.7410    -0.8040    -3.4440 ca         1 7WH      -0.116000
     14 C9          -2.0670     1.0540    -3.8700 cp         1 7WH       0.378800
     15 N1          -3.0840     0.3600    -4.3620 nb         1 7WH      -0.581000
     16 C13         -4.2810     0.8900    -4.5150 ca         1 7WH       0.347200
     17 C12         -4.5270     2.2050    -4.1660 ca         1 7WH      -0.177300
     18 C11         -3.4860     2.9790    -3.6420 ca         1 7WH      -0.081600
     19 C10         -2.2320     2.3850    -3.4890 ca         1 7WH      -0.175300
     20 C14         -3.7090     4.3910    -3.2570 c          1 7WH       0.974200
     21 O2          -2.7940     5.0500    -2.8040 o          1 7WH      -0.880800
     22 O1          -4.9270     4.9460    -3.4090 o          1 7WH      -0.880800
     23 H11C         2.5890     0.8850     1.3620 h1         1 7WH      -0.003300
     24 H12C         2.5900    -0.8840     1.3620 h1         1 7WH      -0.003300
     25 H            2.8820     0.0930    -1.1710 hn         1 7WH       0.154500
     26 HC1          0.8860    -0.0000     4.4470 h1         1 7WH      -0.015633
     27 HC2          2.2690     0.8850     3.7870 h1         1 7WH      -0.015633
     28 HC3          2.2700    -0.8840     3.7880 h1         1 7WH      -0.015633
     29 H8          -0.4790     1.0540    -1.6850 ha         1 7WH       0.160000
     30 H4           2.7090    -1.2780    -3.3340 ha         1 7WH       0.092000
     31 H5           1.4910    -1.4560    -5.4660 ha         1 7WH       0.101000
     32 H10         -1.4000     2.9500    -3.0870 ha         1 7WH       0.129000
     33 H13         -5.0830     0.2870    -4.9210 h4         1 7WH      -0.038900
     34 H12         -5.5150     2.6310    -4.2980 ha         1 7WH       0.133000
     35 H3          -0.2690    -0.1980    -6.6760 ho         1 7WH       0.384000
@<TRIPOS>BOND
     1     1     2 2   
     2     2     3 1   
     3     2     6 1   
     4     3     4 1   
     5     3    23 1   
     6     3    24 1   
     7     4     5 1   
     8     5    26 1   
     9     5    27 1   
    10     5    28 1   
    11     6     7 1   
    12     6    25 1   
    13     7     8 ar  
    14     7    13 ar  
    15     8     9 ar  
    16     8    29 1   
    17     9    10 ar  
    18     9    14 1   
    19    10    11 1   
    20    10    12 ar  
    21    11    35 1   
    22    12    13 ar  
    23    12    31 1   
    24    13    30 1   
    25    14    15 ar  
    26    14    19 ar  
    27    15    16 ar  
    28    16    17 ar  
    29    16    33 1   
    30    17    18 ar  
    31    17    34 1   
    32    18    19 ar  
    33    18    20 1   
    34    19    32 1   
    35    20    21 1   
    36    20    22 1   
@<TRIPOS>SUBSTRUCTURE
     1 7WH         1 TEMP              0 ****  ****    0 ROOT
