@<TRIPOS>MOLECULE
7WI
   28    28     1     0     0
SMALL
bcc


@<TRIPOS>ATOM
      1 C1           0.0000     0.0000     0.0000 ca         1 7WI      -0.057400
      2 C2           1.3890     0.0000     0.0000 ca         1 7WI      -0.104000
      3 N3          -0.7010    -0.0000    -1.2110 ns         1 7WI      -0.054100
      4 C4          -0.6900    -0.0070     1.2050 ca         1 7WI      -0.142000
      5 C5           2.0790     0.0000     1.1970 ca         1 7WI      -0.012600
      6 C6          -0.1950    -0.6400    -2.2830 c          1 7WI       0.564100
      7 C7           0.0040    -0.0120     2.3990 ca         1 7WI      -0.072000
      8 C8           1.3870    -0.0000     2.3960 ca         1 7WI      -0.120000
      9 Cl9          3.8150    -0.0000     1.1980 cl         1 7WI      -0.028400
     10 N10         -0.8140    -0.5510    -3.4770 ns         1 7WI      -0.210900
     11 O11          0.8220    -1.2980    -2.1750 o          1 7WI      -0.693100
     12 C12         -0.2630    -1.2460    -4.6420 c3         1 7WI       0.063000
     13 C13         -1.1520    -0.9820    -5.8600 c3         1 7WI       0.194400
     14 O14         -1.1050     0.4070    -6.1910 os         1 7WI      -0.421600
     15 C15         -1.9040     0.7610    -7.3220 c3         1 7WI       0.256700
     16 H2           1.9310     0.0000    -0.9380 ha         1 7WI       0.154000
     17 H3          -1.5750     0.4820    -1.2830 hn         1 7WI       0.161500
     18 H4          -1.7740    -0.0120     1.2080 ha         1 7WI       0.105000
     19 H7          -0.5360    -0.0150     3.3390 ha         1 7WI       0.104000
     20 H8           1.9290    -0.0020     3.3330 ha         1 7WI       0.113000
     21 H10         -1.6610    -0.0240    -3.5630 hn         1 7WI       0.173500
     22 H121        -0.2290    -2.3110    -4.4440 h1         1 7WI       0.033700
     23 H122         0.7380    -0.8830    -4.8390 h1         1 7WI       0.033700
     24 H131        -2.1720    -1.2650    -5.6310 h1         1 7WI      -0.002300
     25 H132        -0.7950    -1.5660    -6.7000 h1         1 7WI      -0.002300
     26 H151        -1.8230     1.8270    -7.5010 h1         1 7WI      -0.011633
     27 H152        -2.9390     0.5060    -7.1270 h1         1 7WI      -0.011633
     28 H153        -1.5560     0.2210    -8.1940 h1         1 7WI      -0.011633
@<TRIPOS>BOND
     1     1     2 ar  
     2     1     3 1   
     3     1     4 ar  
     4     2     5 ar  
     5     2    16 1   
     6     3     6 1   
     7     3    17 1   
     8     4     7 ar  
     9     4    18 1   
    10     5     8 ar  
    11     5     9 1   
    12     6    10 1   
    13     6    11 2   
    14     7     8 ar  
    15     7    19 1   
    16     8    20 1   
    17    10    12 1   
    18    10    21 1   
    19    12    13 1   
    20    12    22 1   
    21    12    23 1   
    22    13    14 1   
    23    13    24 1   
    24    13    25 1   
    25    14    15 1   
    26    15    26 1   
    27    15    27 1   
    28    15    28 1   
@<TRIPOS>SUBSTRUCTURE
     1 7WI         1 TEMP              0 ****  ****    0 ROOT
