@<TRIPOS>MOLECULE
molecule
   28    28     1     0     0
SMALL
bcc


@<TRIPOS>ATOM
      1 C1           0.0000     0.0000     0.0000 ca         1 7WI       0.087600
      2 C2           1.3890     0.0000     0.0000 ca         1 7WI      -0.123000
      3 N3          -0.7010    -0.0000    -1.2110 ns         1 7WI      -0.492100
      4 C4          -0.6900    -0.0070     1.2050 ca         1 7WI      -0.168000
      5 C5           2.0790     0.0000     1.1970 ca         1 7WI       0.046400
      6 C6          -0.1950    -0.6400    -2.2830 c          1 7WI       0.780100
      7 C7           0.0040    -0.0120     2.3990 ca         1 7WI      -0.103000
      8 C8           1.3870    -0.0000     2.3960 ca         1 7WI      -0.144000
      9 Cl9          3.8150    -0.0000     1.1980 cl         1 7WI      -0.106400
     10 N10         -0.8140    -0.5510    -3.4770 ns         1 7WI      -0.595900
     11 O11          0.8220    -1.2980    -2.1750 o          1 7WI      -0.645100
     12 C12         -0.2630    -1.2460    -4.6420 c3         1 7WI       0.135000
     13 C13         -1.1520    -0.9820    -5.8600 c3         1 7WI       0.115400
     14 O14         -1.1050     0.4070    -6.1910 os         1 7WI      -0.430600
     15 C15         -1.9040     0.7610    -7.3220 c3         1 7WI       0.127700
     16 H2           1.9310     0.0000    -0.9380 ha         1 7WI       0.178000
     17 H3          -1.5750     0.4820    -1.2830 hn         1 7WI       0.319500
     18 H4          -1.7740    -0.0120     1.2080 ha         1 7WI       0.131000
     19 H7          -0.5360    -0.0150     3.3390 ha         1 7WI       0.136000
     20 H8           1.9290    -0.0020     3.3330 ha         1 7WI       0.142000
     21 H10         -1.6610    -0.0240    -3.5630 hn         1 7WI       0.314500
     22 H121        -0.2290    -2.3110    -4.4440 h1         1 7WI       0.064700
     23 H122         0.7380    -0.8830    -4.8390 h1         1 7WI       0.064700
     24 H131        -2.1720    -1.2650    -5.6310 h1         1 7WI       0.033700
     25 H132        -0.7950    -1.5660    -6.7000 h1         1 7WI       0.033700
     26 H151        -1.8230     1.8270    -7.5010 h1         1 7WI       0.032033
     27 H152        -2.9390     0.5060    -7.1270 h1         1 7WI       0.032033
     28 H153        -1.5560     0.2210    -8.1940 h1         1 7WI       0.032033
@<TRIPOS>BOND
     1     1     2 ar  
     2     1     3 1   
     3     1     4 ar  
     4     2     5 ar  
     5     3     6 1   
     6     4     7 ar  
     7     5     8 ar  
     8     5     9 1   
     9     6    10 1   
    10     6    11 2   
    11     7     8 ar  
    12    10    12 1   
    13    12    13 1   
    14    13    14 1   
    15    14    15 1   
    16     2    16 1   
    17     3    17 1   
    18     4    18 1   
    19     7    19 1   
    20     8    20 1   
    21    10    21 1   
    22    12    22 1   
    23    12    23 1   
    24    13    24 1   
    25    13    25 1   
    26    15    26 1   
    27    15    27 1   
    28    15    28 1   
@<TRIPOS>SUBSTRUCTURE
     1 7WI         1 TEMP              0 ****  ****    0 ROOT
