@<TRIPOS>MOLECULE
molecule
   47    49     1     0     0
SMALL
bcc


@<TRIPOS>ATOM
      1 C            0.0000     0.0000     0.0000 c          1 7WJ       0.866600
      2 CA           1.5080     0.0000     0.0000 c3         1 7WJ       0.042500
      3 CB           2.0180    -1.2500    -0.7220 c3         1 7WJ      -0.249400
      4 CE           5.3520    -2.5470    -1.7340 c          1 7WJ       0.677700
      5 O           -0.6710     0.4030    -1.0910 o          1 7WJ      -0.765800
      6 N            1.9960     0.0000     1.3850 nz         1 7WJ      -0.804600
      7 OE           6.1370    -1.7020    -1.3510 o          1 7WJ      -0.603100
      8 CG           3.5420    -1.1870    -0.8310 c3         1 7WJ       0.139000
      9 ND           4.0310    -2.3830    -1.5220 ns         1 7WJ      -0.577900
     10 CQ           5.8460    -3.7570    -2.4330 ca         1 7WJ      -0.129600
     11 CR1          4.9580    -4.7350    -2.8840 ca         1 7WJ      -0.166300
     12 CR2          7.2120    -3.9430    -2.6620 ca         1 7WJ      -0.166300
     13 CS1          5.4610    -5.8590    -3.5370 cp         1 7WJ       0.372300
     14 CS2          7.6370    -5.0950    -3.3220 cp         1 7WJ       0.372300
     15 CT1          4.5290    -6.9050    -4.0210 cp         1 7WJ       0.365800
     16 CT3          9.0840    -5.3050    -3.5700 cp         1 7WJ       0.365800
     17 CU2          5.0300    -8.0290    -4.6740 ca         1 7WJ      -0.208300
     18 CU4          9.5120    -6.4520    -4.2360 ca         1 7WJ      -0.208300
     19 CV1          2.3620    -7.6690    -4.2420 ca         1 7WJ       0.421700
     20 CV2          4.1460    -8.9980    -5.1200 ca         1 7WJ      -0.099500
     21 CV3         11.2540    -4.5470    -3.3570 ca         1 7WJ       0.421700
     22 CV4         10.8660    -6.6330    -4.4600 ca         1 7WJ      -0.099500
     23 CW1          2.7890    -8.8100    -4.8980 ca         1 7WJ      -0.244800
     24 CW2         11.7480    -5.6610    -4.0110 ca         1 7WJ      -0.244800
     25 NT2          6.7640    -6.0030    -3.7310 nb         1 7WJ      -0.676000
     26 NU1          3.2240    -6.7660    -3.8240 nb         1 7WJ      -0.689500
     27 NU3          9.9600    -4.3960    -3.1620 nb         1 7WJ      -0.689500
     28 H2           1.8690     0.8850    -0.5100 hx         1 7WJ       0.084700
     29 H3           2.1370    -0.2720    -1.1730 hc         1 7WJ       0.127700
     30 H4           1.4260    -1.7770    -1.4600 hc         1 7WJ       0.127700
     31 H5           2.0340    -0.9400     1.7250 hn         1 7WJ       0.441467
     32 H6           2.9120     0.4030     1.4150 hn         1 7WJ       0.441467
     33 H8           3.8290    -0.3040    -1.3890 h1         1 7WJ       0.032200
     34 H9           3.9740    -1.1420     0.1620 h1         1 7WJ       0.032200
     35 H10          3.3840    -3.0780    -1.8380 hn         1 7WJ       0.334500
     36 H11          3.9200    -4.7080    -2.5740 ha         1 7WJ       0.172500
     37 H12          7.9060    -3.1290    -2.4910 ha         1 7WJ       0.172500
     38 H13          6.0950    -8.1440    -4.8310 ha         1 7WJ       0.158500
     39 H14          8.7950    -7.1910    -4.5730 ha         1 7WJ       0.158500
     40 H15          1.3030    -7.5190    -4.0650 h4         1 7WJ       0.027600
     41 H16          4.5050    -9.8830    -5.6310 ha         1 7WJ       0.141500
     42 H17         11.9400    -3.7850    -3.0070 h4         1 7WJ       0.027600
     43 H18         11.2280    -7.5150    -4.9740 ha         1 7WJ       0.141500
     44 H19          2.0720    -9.5480    -5.2360 ha         1 7WJ       0.140500
     45 H20         12.8140    -5.7750    -4.1690 ha         1 7WJ       0.140500
     46 OXT         -0.6040    -0.3590     0.9820 o          1 7WJ      -0.765800
     47 HN3          1.3740     0.5340     1.9580 hn         1 7WJ       0.441467
@<TRIPOS>BOND
     1     8     3 1   
     2     8     9 1   
     3     6     2 1   
     4     7     4 2   
     5     3     2 1   
     6     9     4 1   
     7     4    10 1   
     8     2     1 1   
     9    10    12 ar  
    10    10    11 ar  
    11    12    14 ar  
    12    18    22 ar  
    13    18    16 ar  
    14     1     5 1   
    15    22    24 ar  
    16    11    13 ar  
    17    14    16 1   
    18    14    25 ar  
    19    16    27 ar  
    20    24    21 ar  
    21    13    25 ar  
    22    13    15 1   
    23    27    21 ar  
    24    15    17 ar  
    25    15    26 ar  
    26    17    20 ar  
    27    26    19 ar  
    28    20    23 ar  
    29    19    23 ar  
    30     2    28 1   
    31     3    29 1   
    32     3    30 1   
    33     6    31 1   
    34     6    32 1   
    35     8    33 1   
    36     8    34 1   
    37     9    35 1   
    38    11    36 1   
    39    12    37 1   
    40    17    38 1   
    41    18    39 1   
    42    19    40 1   
    43    20    41 1   
    44    21    42 1   
    45    22    43 1   
    46    23    44 1   
    47    24    45 1   
    48     1    46 1   
    49    47     6 1   
@<TRIPOS>SUBSTRUCTURE
     1 7WJ         1 TEMP              0 ****  ****    0 ROOT
