@<TRIPOS>MOLECULE
7WL
   50    52     1     0     0
SMALL
bcc


@<TRIPOS>ATOM
      1 C17          0.0000     0.0000     0.0000 ca         1 7WL      -0.138500
      2 C18          1.3820     0.0000     0.0000 ca         1 7WL      -0.044000
      3 C19          2.0730     0.0000     1.1970 ca         1 7WL      -0.138500
      4 C20          1.3830     0.0020     2.3940 ca         1 7WL       0.015500
      5 N1          -1.1250     1.5860     4.3440 ns         1 7WL      -0.304300
      6 F3          -9.3490     4.5200    -2.2790 f          1 7WL      -0.208633
      7 F1          -9.5720     5.5560    -0.2550 f          1 7WL      -0.208633
      8 F2          -8.9100     3.3730    -0.3520 f          1 7WL      -0.208633
      9 C1          -7.3910     5.0590    -1.0490 ca         1 7WL      -0.255300
     10 C2          -6.6640     5.2210     0.1160 ca         1 7WL       0.018000
     11 C6          -6.7980     5.2930    -2.2760 ca         1 7WL       0.007000
     12 C5          -5.4770     5.6960    -2.3390 ca         1 7WL      -0.219000
     13 C4          -4.7480     5.8640    -1.1720 ca         1 7WL       0.204100
     14 O1          -3.4490     6.2610    -1.2320 os         1 7WL      -0.299900
     15 C7          -2.8990     6.4850    -2.5320 c3         1 7WL       0.201400
     16 C21         -1.4390     6.9220    -2.3990 c3         1 7WL       0.000900
     17 C3          -5.3440     5.6230     0.0570 ca         1 7WL      -0.128300
     18 C9          -4.5530     5.8000     1.3280 c3         1 7WL       0.126000
     19 C10         -2.8780     4.6320     3.2420 cc         1 7WL       0.120900
     20 C11         -2.9040     5.8840     3.8300 cc         1 7WL      -0.165000
     21 C12         -2.1910     5.9960     4.9520 cd         1 7WL       0.025900
     22 S2          -1.4300     4.5230     5.3520 ss         1 7WL      -0.205800
     23 C13         -2.1130     3.7280     3.9410 cd         1 7WL      -0.093700
     24 C14         -1.9050     2.3760     3.5790 c          1 7WL       0.699700
     25 O2          -2.4310     1.9250     2.5770 o          1 7WL      -0.586100
     26 O4           0.0010    -0.5400     4.8930 o          1 7WL      -0.571300
     27 O3          -2.1650    -0.5400     3.6440 o          1 7WL      -0.571300
     28 C15         -0.0000     0.0020     2.3950 ca         1 7WL      -0.163500
     29 C16         -0.6910     0.0010     1.1970 ca         1 7WL       0.015500
     30 H1          -0.5420    -0.0000    -0.9380 ha         1 7WL       0.108500
     31 H2           1.9240    -0.0010    -0.9380 ha         1 7WL       0.100000
     32 H3           3.1560    -0.0000     1.1970 ha         1 7WL       0.108500
     33 H4           1.9250     0.0020     3.3320 ha         1 7WL       0.131500
     34 H5          -0.7220     1.9460     5.1870 hn         1 7WL       0.236500
     35 H6          -7.1310     5.0330     1.0750 ha         1 7WL       0.122000
     36 H7          -7.3690     5.1610    -3.1870 ha         1 7WL       0.120000
     37 H8          -5.0120     5.8790    -3.3010 ha         1 7WL       0.129000
     38 H9          -3.4640     7.2610    -3.0340 h1         1 7WL       0.003200
     39 H10         -2.9510     5.5690    -3.1090 h1         1 7WL       0.003200
     40 H11         -0.8750     6.1480    -1.8910 hc         1 7WL       0.013367
     41 H12         -1.0200     7.0860    -3.3840 hc         1 7WL       0.013367
     42 H13         -1.3870     7.8400    -1.8260 hc         1 7WL       0.013367
     43 H14         -5.2190     6.0940     2.1300 h1         1 7WL       0.045700
     44 H15         -3.8030     6.5690     1.1820 h1         1 7WL       0.045700
     45 H16         -3.4630     6.7120     3.4110 ha         1 7WL       0.133000
     46 H17         -2.1050     6.9060     5.5340 h4         1 7WL       0.152000
     47 H18         -1.7740     0.0010     1.1970 ha         1 7WL       0.131500
     48 S3          -0.8800     0.0040     3.9200 sy         1 7WL       1.042900
     49 S1          -3.7410     4.2360     1.7570 ss         1 7WL      -0.226000
     50 C8          -8.8310     4.6190    -0.9820 c3         1 7WL       0.646200
@<TRIPOS>BOND
     1     1     2 ar  
     2     1    29 ar  
     3     1    30 1   
     4     2     3 ar  
     5     2    31 1   
     6     3     4 ar  
     7     3    32 1   
     8     4    28 ar  
     9     4    33 1   
    10     5    24 1   
    11     5    34 1   
    12     5    48 1   
    13     6    50 1   
    14     7    50 1   
    15     8    50 1   
    16     9    10 ar  
    17     9    11 ar  
    18     9    50 1   
    19    10    17 ar  
    20    10    35 1   
    21    11    12 ar  
    22    11    36 1   
    23    12    13 ar  
    24    12    37 1   
    25    13    14 1   
    26    13    17 ar  
    27    14    15 1   
    28    15    16 1   
    29    15    38 1   
    30    15    39 1   
    31    16    40 1   
    32    16    41 1   
    33    16    42 1   
    34    17    18 1   
    35    18    43 1   
    36    18    44 1   
    37    18    49 1   
    38    19    20 1   
    39    19    23 2   
    40    19    49 1   
    41    20    21 2   
    42    20    45 1   
    43    21    22 1   
    44    21    46 1   
    45    22    23 1   
    46    23    24 1   
    47    24    25 2   
    48    26    48 2   
    49    27    48 2   
    50    28    29 ar  
    51    28    48 1   
    52    29    47 1   
@<TRIPOS>SUBSTRUCTURE
     1 7WL         1 TEMP              0 ****  ****    0 ROOT
