@<TRIPOS>MOLECULE
molecule
   21    22     1     0     0
SMALL
bcc


@<TRIPOS>ATOM
      1 C7           0.0000     0.0000     0.0000 ca         1 7WO      -0.136000
      2 C            3.5740    -0.0130     3.7130 c          1 7WO       0.578500
      3 C1           2.1140    -0.0070     3.6690 ca         1 7WO      -0.223600
      4 C10          1.4030    -0.0010     2.3890 ca         1 7WO       0.016000
      5 C9           2.0910     0.0000     1.1720 ca         1 7WO      -0.134000
      6 C8           1.3920     0.0000     0.0000 ca         1 7WO      -0.105000
      7 C6          -0.7020     0.0040     1.1680 ca         1 7WO      -0.100000
      8 C5          -0.0130     0.0040     2.3920 ca         1 7WO      -0.068000
      9 C4          -0.7050     0.0020     3.6180 ca         1 7WO      -0.059000
     10 C3          -0.0330    -0.0040     4.7970 ca         1 7WO      -0.199000
     11 C2           1.3620    -0.0090     4.8490 ca         1 7WO       0.190100
     12 O1           1.9910    -0.0150     6.0490 oh         1 7WO      -0.483100
     13 H1          -0.5330    -0.0000    -0.9430 ha         1 7WO       0.132000
     14 H2           4.1430    -0.1150     2.7970 h4         1 7WO      -0.003800
     15 H5           3.1750    -0.0000     1.1600 ha         1 7WO       0.136000
     16 H6           1.9270    -0.0030    -0.9420 ha         1 7WO       0.133000
     17 H7          -1.7850     0.0040     1.1530 ha         1 7WO       0.134000
     18 H8          -1.7890     0.0060     3.6200 ha         1 7WO       0.136000
     19 H9          -0.5940    -0.0050     5.7240 ha         1 7WO       0.139000
     20 H10          1.6970    -0.7540     6.5550 ho         1 7WO       0.424000
     21 O2           4.1500     0.0760     4.7780 o          1 7WO      -0.508100
@<TRIPOS>BOND
     1    12    11 1
     2     2     3 1
     3    11     3 ar
     4    11    10 ar
     5     3     4 ar
     6    10     9 ar
     7     4     5 ar
     8     4     8 ar
     9     5     6 ar
    10     9     8 ar
    11     8     7 ar
    12     6     1 ar
    13     7     1 ar
    14     1    13 1
    15     2    14 1
    16     5    15 1
    17     6    16 1
    18     7    17 1
    19     9    18 1
    20    10    19 1
    21    12    20 1
    22     2    21 2
@<TRIPOS>SUBSTRUCTURE
     1 7WO         1 TEMP              0 ****  ****    0 ROOT
