@<TRIPOS>MOLECULE
7WP
   20    21     1     0     0
SMALL
bcc


@<TRIPOS>ATOM
      1 C2           0.0000     0.0000     0.0000 ca         1 7WP       0.011000
      2 N3           2.1170    -0.0010     3.4910 nv         1 7WP      -0.645500
      3 C4           1.3950    -0.0010     2.3140 ca         1 7WP       0.807900
      4 C5           1.4220     0.0000     0.0000 ca         1 7WP       0.578000
      5 N           -0.6650    -0.0010    -1.1430 nb         1 7WP      -0.430000
      6 C           -0.7300    -0.0000    -3.5660 c          1 7WP       0.564400
      7 C1           0.0050    -0.0000    -2.2890 ca         1 7WP       0.089500
      8 C3          -0.6840    -0.0070     1.2980 ca         1 7WP       0.506900
      9 C6           1.4110    -0.0000    -2.2910 ca         1 7WP       0.372900
     10 N1          -2.0570    -0.0130     1.3790 nv         1 7WP      -0.434500
     11 N2           0.0680    -0.0070     2.3900 nb         1 7WP      -0.751000
     12 N4           2.0610     0.0000     1.1750 nb         1 7WP      -0.678000
     13 N5           2.0830    -0.0000    -1.1620 nb         1 7WP      -0.547000
     14 H1           2.3760     0.8660     3.9190 hn         1 7WP       0.284300
     15 H2           2.3810    -0.8670     3.9160 hn         1 7WP       0.284300
     16 H3          -0.1870     0.0000    -4.5030 h4         1 7WP      -0.031800
     17 H6           1.9460     0.0000    -3.2330 h4         1 7WP      -0.011900
     18 H7          -2.6080    -0.0120     0.5440 hn         1 7WP       0.282800
     19 H8          -2.5050    -0.0180     2.2740 hn         1 7WP       0.282800
     20 O1          -1.9430    -0.0000    -3.5690 o          1 7WP      -0.533100
@<TRIPOS>BOND
     1     1     4 ar  
     2     1     5 ar  
     3     1     8 ar  
     4     2     3 1   
     5     2    14 1   
     6     2    15 1   
     7     3    11 ar  
     8     3    12 ar  
     9     4    12 ar  
    10     4    13 ar  
    11     5     7 ar  
    12     6     7 1   
    13     6    16 1   
    14     6    20 2   
    15     7     9 ar  
    16     8    10 1   
    17     8    11 ar  
    18     9    13 ar  
    19     9    17 1   
    20    10    18 1   
    21    10    19 1   
@<TRIPOS>SUBSTRUCTURE
     1 7WP         1 TEMP              0 ****  ****    0 ROOT
