@<TRIPOS>MOLECULE
molecule
   20    21     1     0     0
SMALL
bcc


@<TRIPOS>ATOM
      1 C2           0.0000     0.0000     0.0000 ca         1 7WP       0.055000
      2 N3           2.1170    -0.0010     3.4910 nv         1 7WP      -1.060500
      3 C4           1.3950    -0.0010     2.3140 ca         1 7WP       1.019900
      4 C5           1.4220     0.0000     0.0000 ca         1 7WP       0.656000
      5 N           -0.6650    -0.0010    -1.1430 nb         1 7WP      -0.566000
      6 C           -0.7300    -0.0000    -3.5660 c          1 7WP       0.476400
      7 C1           0.0050    -0.0000    -2.2890 ca         1 7WP       0.162500
      8 C3          -0.6840    -0.0070     1.2980 ca         1 7WP       0.725900
      9 C6           1.4110    -0.0000    -2.2910 ca         1 7WP       0.380900
     10 N1          -2.0570    -0.0130     1.3790 nv         1 7WP      -0.954500
     11 N2           0.0680    -0.0070     2.3900 nb         1 7WP      -0.852000
     12 N4           2.0610     0.0000     1.1750 nb         1 7WP      -0.779000
     13 N5           2.0830    -0.0000    -1.1620 nb         1 7WP      -0.645000
     14 H1           2.3760     0.8660     3.9190 hn         1 7WP       0.450800
     15 H2           2.3810    -0.8670     3.9160 hn         1 7WP       0.450800
     16 H3          -0.1870     0.0000    -4.5030 h4         1 7WP       0.012200
     17 H6           1.9460     0.0000    -3.2330 h4         1 7WP       0.037100
     18 H7          -2.6080    -0.0120     0.5440 hn         1 7WP       0.460800
     19 H8          -2.5050    -0.0180     2.2740 hn         1 7WP       0.460800
     20 O1          -1.9430    -0.0000    -3.5690 o          1 7WP      -0.490100
@<TRIPOS>BOND
     1     2     3 1   
     2     3    11 ar  
     3     3    12 ar  
     4    11     8 ar  
     5    12     4 ar  
     6     8    10 1   
     7     8     1 ar  
     8     4     1 ar  
     9     4    13 ar  
    10     1     5 ar  
    11    13     9 ar  
    12     5     7 ar  
    13     9     7 ar  
    14     7     6 1   
    15     2    14 1   
    16     2    15 1   
    17     6    16 1   
    18     9    17 1   
    19    10    18 1   
    20    10    19 1   
    21     6    20 2   
@<TRIPOS>SUBSTRUCTURE
     1 7WP         1 TEMP              0 ****  ****    0 ROOT
