@<TRIPOS>MOLECULE
molecule
   19    19     1     0     0
SMALL
bcc


@<TRIPOS>ATOM
      1 C            0.0000     0.0000     0.0000 c3         1 7WQ       0.128700
      2 O            1.4280     0.0000     0.0000 os         1 7WQ      -0.324900
      3 C1           2.0460     0.0000     1.2110 ca         1 7WQ       0.112100
      4 C2           3.4260    -0.0000     1.2810 ca         1 7WQ      -0.082000
      5 C3           4.0600    -0.0000     2.5300 ca         1 7WQ      -0.181600
      6 C4           3.2860     0.0010     3.7000 ca         1 7WQ       0.114100
      7 C5           1.9020     0.0010     3.6110 ca         1 7WQ      -0.157000
      8 C6           1.2860     0.0070     2.3760 ca         1 7WQ      -0.172000
      9 C7           5.5250    -0.0000     2.6130 c          1 7WQ       0.586500
     10 O1           3.8900    -0.0000     4.9160 oh         1 7WQ      -0.515100
     11 H1          -0.3610    -0.8830     0.5130 h1         1 7WQ       0.042367
     12 H2          -0.3610     0.8860     0.5080 h1         1 7WQ       0.042367
     13 H3          -0.3610    -0.0030    -1.0210 h1         1 7WQ       0.042367
     14 H4           4.0160    -0.0010     0.3720 ha         1 7WQ       0.171000
     15 H5           1.3030     0.0040     4.5140 ha         1 7WQ       0.140000
     16 H6           0.2050     0.0070     2.3140 ha         1 7WQ       0.140000
     17 H7           6.0130    -0.0000     3.5800 h4         1 7WQ       0.018200
     18 H10          3.6190    -0.7620     5.4010 ho         1 7WQ       0.423000
     19 O2           6.1910    -0.0020     1.5980 o          1 7WQ      -0.528100
@<TRIPOS>BOND
     1    10     6 1   
     2     9     5 1   
     3     6     5 ar  
     4     6     7 ar  
     5     5     4 ar  
     6     7     8 ar  
     7     4     3 ar  
     8     8     3 ar  
     9     3     2 1   
    10     2     1 1   
    11     1    11 1   
    12     1    12 1   
    13     1    13 1   
    14     4    14 1   
    15     7    15 1   
    16     8    16 1   
    17     9    17 1   
    18    10    18 1   
    19     9    19 2   
@<TRIPOS>SUBSTRUCTURE
     1 7WQ         1 TEMP              0 ****  ****    0 ROOT
