@<TRIPOS>MOLECULE
molecule
   20    20     1     0     0
SMALL
bcc


@<TRIPOS>ATOM
      1 C01          0.0000     0.0000     0.0000 c3         1 7WR       0.129700
      2 C03          2.0460     0.0000     1.2120 ca         1 7WR       0.096100
      3 C04          1.2930    -0.0010     2.3700 ca         1 7WR      -0.194000
      4 C05          1.9290    -0.0010     3.6150 ca         1 7WR      -0.059600
      5 C06          3.3250    -0.0000     3.6840 ca         1 7WR      -0.152000
      6 C07          4.0730     0.0000     2.5220 ca         1 7WR       0.076100
      7 C09          3.4370    -0.0040     1.2830 ca         1 7WR       0.027100
      8 C11          1.1280    -0.0010     4.8530 c          1 7WR       0.881200
      9 O02          1.4290     0.0000     0.0000 os         1 7WR      -0.336900
     10 O08          5.4310     0.0020     2.5880 oh         1 7WR      -0.528100
     11 O10          4.1750    -0.0050     0.1420 oh         1 7WR      -0.515100
     12 O12         -0.0850    -0.0010     4.7920 o          1 7WR      -0.832800
     13 O13          1.7420    -0.0010     6.0530 o          1 7WR      -0.832800
     14 H1          -0.3610     0.8850     0.5100 h1         1 7WR       0.035367
     15 H2          -0.3610    -0.8840     0.5110 h1         1 7WR       0.035367
     16 H3          -0.3610    -0.0000    -1.0210 h1         1 7WR       0.035367
     17 H4           0.2110     0.0010     2.3140 ha         1 7WR       0.156000
     18 H5           3.8200     0.0020     4.6470 ha         1 7WR       0.166000
     19 H6           5.7310     0.8520     2.8650 ho         1 7WR       0.411000
     20 H7           4.4020    -0.8910    -0.0860 ho         1 7WR       0.402000
@<TRIPOS>BOND
     1    10     6 1   
     2     6     5 ar  
     3     6     7 ar  
     4     5     4 ar  
     5    12     8 1   
     6    11     7 1   
     7     7     2 ar  
     8     4     8 1   
     9     4     3 ar  
    10     8    13 1   
    11     2     3 ar  
    12     2     9 1   
    13     1     9 1   
    14     1    14 1   
    15     1    15 1   
    16     1    16 1   
    17     3    17 1   
    18     5    18 1   
    19    10    19 1   
    20    11    20 1   
@<TRIPOS>SUBSTRUCTURE
     1 7WR         1 TEMP              0 ****  ****    0 ROOT
