@<TRIPOS>MOLECULE
molecule
   14    14     1     0     0
SMALL
bcc


@<TRIPOS>ATOM
      1 C01          0.0000     0.0000     0.0000 ca         1 7WV      -0.156000
      2 C02          1.3840     0.0000     0.0000 ca         1 7WV      -0.158000
      3 C03          2.0820     0.0000     1.1950 ca         1 7WV      -0.137000
      4 C04          1.4000     0.0000     2.3960 ca         1 7WV       0.003100
      5 C05          0.0030     0.0010     2.4020 ca         1 7WV      -0.081600
      6 C06         -0.6940     0.0060     1.1910 ca         1 7WV      -0.092000
      7 C07         -0.7340     0.0000     3.6820 c          1 7WV       0.872200
      8 O08         -0.1240    -0.0010     4.7330 o          1 7WV      -0.822800
      9 O09         -2.0800     0.0010     3.6830 o          1 7WV      -0.822800
     10 Br1          2.3560    -0.0010     4.0280 br         1 7WV      -0.090100
     11 H1          -0.5400    -0.0050    -0.9390 ha         1 7WV       0.106000
     12 H2           1.9240    -0.0000    -0.9390 ha         1 7WV       0.104000
     13 H3           3.1650    -0.0000     1.1880 ha         1 7WV       0.115000
     14 H4          -1.7750     0.0770     1.1880 ha         1 7WV       0.158000
@<TRIPOS>BOND
     1     8     7 1
     2    10     4 1
     3     7     9 1
     4     7     5 1
     5     5     4 ar
     6     5     6 ar
     7     4     3 ar
     8     6     1 ar
     9     3     2 ar
    10     1     2 ar
    11     1    11 1
    12     2    12 1
    13     3    13 1
    14     6    14 1
@<TRIPOS>SUBSTRUCTURE
     1 7WV         1 TEMP              0 ****  ****    0 ROOT
