@<TRIPOS>MOLECULE
7WY
   48    52     1     0     0
SMALL
bcc


@<TRIPOS>ATOM
      1 C10          0.0000     0.0000     0.0000 ca         1 7WY       0.013600
      2 C13          1.3740    -0.0000     2.4210 ca         1 7WY      -0.093000
      3 C15          1.3800     0.0000     0.0000 ca         1 7WY      -0.093000
      4 C17          4.2600    -0.0010     2.4240 ca         1 7WY      -0.063000
      5 C21          4.2620    -0.0010     0.0170 ca         1 7WY       0.414200
      6 C24         -1.4450     1.3270    -3.1050 ca         1 7WY      -0.171500
      7 C26         -0.9550     3.6670    -3.2420 ca         1 7WY      -0.079600
      8 C28         -0.2620     2.4190    -1.3190 ca         1 7WY      -0.171500
      9 C02         -3.1120     0.6410     1.8250 cc         1 7WY       0.304600
     10 C03         -2.1710    -0.0610     1.1540 cd         1 7WY      -0.383600
     11 N04         -2.8440    -0.8990     0.2980 na         1 7WY       0.588400
     12 N05         -4.0980    -0.6820     0.4550 nd         1 7WY      -0.354800
     13 N06         -4.2930     0.2190     1.3550 nc         1 7WY      -0.321000
     14 C07         -2.1790    -1.8500    -0.5920 c3         1 7WY      -0.048700
     15 C08         -1.4460    -1.1090    -1.7140 c3         1 7WY       0.151800
     16 N09         -0.7410     0.0570    -1.1750 nh         1 7WY      -0.236400
     17 C11         -0.6980    -0.0180     1.2260 ca         1 7WY       0.001000
     18 C12         -0.0060    -0.0090     2.4280 ca         1 7WY      -0.074000
     19 C14          2.0710     0.0000     1.2130 cp         1 7WY      -0.015000
     20 C16          3.5530     0.0000     1.2150 cp         1 7WY      -0.165300
     21 C18          5.6400     0.0040     2.3770 ca         1 7WY      -0.219300
     22 C19          6.2790     0.0090     1.1400 ca         1 7WY       0.501200
     23 N20          5.5800     0.0080     0.0150 nb         1 7WY      -0.584000
     24 N22          7.6670     0.0130     1.0840 nv         1 7WY      -0.660500
     25 C23         -0.8160     1.2690    -1.8670 ca         1 7WY       0.060600
     26 C25         -1.5140     2.5250    -3.7870 ca         1 7WY      -0.049000
     27 C27         -0.3280     3.6140    -2.0090 ca         1 7WY      -0.049000
     28 H1           1.9180    -0.0000     3.3580 ha         1 7WY       0.116000
     29 H2           1.9240     0.0000    -0.9370 ha         1 7WY       0.127000
     30 H3           3.7380    -0.0020     3.3720 ha         1 7WY       0.115000
     31 H4           3.7250    -0.0010    -0.9240 h4         1 7WY      -0.013900
     32 H5          -1.8800     0.4320    -3.5340 ha         1 7WY       0.122000
     33 H6           0.2290     2.3770    -0.3540 ha         1 7WY       0.122000
     34 H7          -2.6080     1.1980     3.8180 hc         1 7WY       0.012367
     35 H8          -2.0760     2.3420     2.5790 hc         1 7WY       0.012367
     36 H9          -3.7840     2.2610     3.0330 hc         1 7WY       0.012367
     37 H10         -2.9190    -2.5110    -1.0250 h1         1 7WY       0.050700
     38 H11         -1.4630    -2.4310    -0.0220 h1         1 7WY       0.050700
     39 H12         -0.7190    -1.7800    -2.1560 h1         1 7WY       0.041200
     40 H13         -2.1770    -0.7680    -2.4380 h1         1 7WY       0.041200
     41 H14         -0.5460    -0.0090     3.3670 ha         1 7WY       0.118000
     42 H15          6.2200     0.0040     3.2920 ha         1 7WY       0.119000
     43 H16          8.1640     0.8820     1.0570 hn         1 7WY       0.278300
     44 H17          8.1690    -0.8520     1.0540 hn         1 7WY       0.278300
     45 H18         -2.0040     2.5710    -4.7520 ha         1 7WY       0.112500
     46 H19          0.1060     4.5100    -1.5830 ha         1 7WY       0.112500
     47 C01         -2.8780     1.6840     2.8890 c3         1 7WY       0.003600
     48 Cl          -1.0360     5.1710    -4.1070 cl         1 7WY      -0.032400
@<TRIPOS>BOND
     1     1     3 ar  
     2     1    16 1   
     3     1    17 ar  
     4     2    18 ar  
     5     2    19 ar  
     6     2    28 1   
     7     3    19 ar  
     8     3    29 1   
     9     4    20 ar  
    10     4    21 ar  
    11     4    30 1   
    12     5    20 ar  
    13     5    23 ar  
    14     5    31 1   
    15     6    25 ar  
    16     6    26 ar  
    17     6    32 1   
    18     7    26 ar  
    19     7    27 ar  
    20     7    48 1   
    21     8    25 ar  
    22     8    27 ar  
    23     8    33 1   
    24     9    10 2   
    25     9    13 1   
    26     9    47 1   
    27    10    11 1   
    28    10    17 1   
    29    11    12 1   
    30    11    14 1   
    31    12    13 2   
    32    14    15 1   
    33    14    37 1   
    34    14    38 1   
    35    15    16 1   
    36    15    39 1   
    37    15    40 1   
    38    16    25 1   
    39    17    18 ar  
    40    18    41 1   
    41    19    20 1   
    42    21    22 ar  
    43    21    42 1   
    44    22    23 ar  
    45    22    24 1   
    46    24    43 1   
    47    24    44 1   
    48    26    45 1   
    49    27    46 1   
    50    34    47 1   
    51    35    47 1   
    52    36    47 1   
@<TRIPOS>SUBSTRUCTURE
     1 7WY         1 TEMP              0 ****  ****    0 ROOT
