@<TRIPOS>MOLECULE
molecule
   48    52     1     0     0
SMALL
bcc


@<TRIPOS>ATOM
      1 C10          0.0000     0.0000     0.0000 ca         1 7WY       0.154600
      2 C13          1.3740    -0.0000     2.4210 ca         1 7WY      -0.123000
      3 C15          1.3800     0.0000     0.0000 ca         1 7WY      -0.125000
      4 C17          4.2600    -0.0010     2.4240 ca         1 7WY      -0.081000
      5 C21          4.2620    -0.0010     0.0170 ca         1 7WY       0.442200
      6 C24         -1.4450     1.3270    -3.1050 ca         1 7WY      -0.187000
      7 C26         -0.9550     3.6670    -3.2420 ca         1 7WY      -0.016600
      8 C28         -0.2620     2.4190    -1.3190 ca         1 7WY      -0.187000
      9 C02         -3.1120     0.6410     1.8250 cc         1 7WY       0.310600
     10 C03         -2.1710    -0.0610     1.1540 cd         1 7WY      -0.200600
     11 N04         -2.8440    -0.8990     0.2980 na         1 7WY       0.130400
     12 N05         -4.0980    -0.6820     0.4550 nd         1 7WY      -0.187800
     13 N06         -4.2930     0.2190     1.3550 nc         1 7WY      -0.365000
     14 C07         -2.1790    -1.8500    -0.5920 c3         1 7WY       0.039300
     15 C08         -1.4460    -1.1090    -1.7140 c3         1 7WY       0.224800
     16 N09         -0.7410     0.0570    -1.1750 nh         1 7WY      -0.615400
     17 C11         -0.6980    -0.0180     1.2260 ca         1 7WY      -0.026000
     18 C12         -0.0060    -0.0090     2.4280 ca         1 7WY      -0.096000
     19 C14          2.0710     0.0000     1.2130 cp         1 7WY      -0.017000
     20 C16          3.5530     0.0000     1.2150 cp         1 7WY      -0.179300
     21 C18          5.6400     0.0040     2.3770 ca         1 7WY      -0.255300
     22 C19          6.2790     0.0090     1.1400 ca         1 7WY       0.683200
     23 N20          5.5800     0.0080     0.0150 nb         1 7WY      -0.707000
     24 N22          7.6670     0.0130     1.0840 nv         1 7WY      -1.084500
     25 C23         -0.8160     1.2690    -1.8670 ca         1 7WY       0.198600
     26 C25         -1.5140     2.5250    -3.7870 ca         1 7WY      -0.077500
     27 C27         -0.3280     3.6140    -2.0090 ca         1 7WY      -0.077500
     28 H1           1.9180    -0.0000     3.3580 ha         1 7WY       0.139000
     29 H2           1.9240     0.0000    -0.9370 ha         1 7WY       0.149000
     30 H3           3.7380    -0.0020     3.3720 ha         1 7WY       0.140000
     31 H4           3.7250    -0.0010    -0.9240 h4         1 7WY       0.026100
     32 H5          -1.8800     0.4320    -3.5340 ha         1 7WY       0.142000
     33 H6           0.2290     2.3770    -0.3540 ha         1 7WY       0.142000
     34 H7          -2.6080     1.1980     3.8180 hc         1 7WY       0.050700
     35 H8          -2.0760     2.3420     2.5790 hc         1 7WY       0.050700
     36 H9          -3.7840     2.2610     3.0330 hc         1 7WY       0.050700
     37 H10         -2.9190    -2.5110    -1.0250 h1         1 7WY       0.081200
     38 H11         -1.4630    -2.4310    -0.0220 h1         1 7WY       0.081200
     39 H12         -0.7190    -1.7800    -2.1560 h1         1 7WY       0.067700
     40 H13         -2.1770    -0.7680    -2.4380 h1         1 7WY       0.067700
     41 H14         -0.5460    -0.0090     3.3670 ha         1 7WY       0.146000
     42 H15          6.2200     0.0040     3.2920 ha         1 7WY       0.146000
     43 H16          8.1640     0.8820     1.0570 hn         1 7WY       0.437800
     44 H17          8.1690    -0.8520     1.0540 hn         1 7WY       0.437800
     45 H18         -2.0040     2.5710    -4.7520 ha         1 7WY       0.145000
     46 H19          0.1060     4.5100    -1.5830 ha         1 7WY       0.145000
     47 C01         -2.8780     1.6840     2.8890 c3         1 7WY      -0.104400
     48 Cl          -1.0360     5.1710    -4.1070 cl         1 7WY      -0.115400
@<TRIPOS>BOND
     1    48     7 1
     2     7    27 ar
     3     7    26 ar
     4    27     8 ar
     5    26     6 ar
     6     8    25 ar
     7     6    25 ar
     8    25    16 1
     9    21     4 ar
    10    21    22 ar
    11    16    15 1
    12    16     1 1
    13    24    22 1
    14    15    14 1
    15     4    20 ar
    16    22    23 ar
    17     3     1 ar
    18     3    19 ar
    19     1    17 ar
    20    20    19 1
    21    20     5 ar
    22    23     5 ar
    23    19     2 ar
    24    14    11 1
    25    17    10 1
    26    17    18 ar
    27    11    10 1
    28    11    12 1
    29    10     9 2
    30     2    18 ar
    31    12    13 2
    32     9    13 1
    33     9    47 1
    34     2    28 1
    35     3    29 1
    36     4    30 1
    37     5    31 1
    38     6    32 1
    39     8    33 1
    40    47    34 1
    41    47    35 1
    42    47    36 1
    43    14    37 1
    44    14    38 1
    45    15    39 1
    46    15    40 1
    47    18    41 1
    48    21    42 1
    49    24    43 1
    50    24    44 1
    51    26    45 1
    52    27    46 1
@<TRIPOS>SUBSTRUCTURE
     1 7WY         1 TEMP              0 ****  ****    0 ROOT
