@<TRIPOS>MOLECULE
7X1
   60    64     1     0     0
SMALL
bcc


@<TRIPOS>ATOM
      1 C1           0.0000     0.0000     0.0000 c3         1 7X1       0.229700
      2 O2           1.4450     0.0000     0.0000 os         1 7X1      -0.275900
      3 C3           1.9740     0.0000     1.2610 ca         1 7X1       0.104100
      4 C4           1.2310    -0.0860     2.4270 ca         1 7X1      -0.149000
      5 C5           1.8820    -0.0600     3.6820 ca         1 7X1      -0.304600
      6 C6           1.1920    -0.1160     4.9230 ca         1 7X1       0.564200
      7 N7          -0.2010    -0.2210     4.9270 nu         1 7X1      -0.318300
      8 C8          -0.9900    -0.1170     6.0920 ca         1 7X1       0.016600
      9 C9          -1.0550     1.0840     6.7590 ca         1 7X1       0.066100
     10 O10         -0.4320     2.2590     6.4760 os         1 7X1      -0.292900
     11 C11         -0.6960     3.0910     7.6170 c3         1 7X1       0.427200
     12 O12         -1.7550     2.4620     8.3490 os         1 7X1      -0.307900
     13 C13         -1.8630     1.2070     7.8960 ca         1 7X1       0.079100
     14 C14         -2.5980     0.1390     8.3960 ca         1 7X1      -0.085000
     15 C15         -2.5150    -1.0790     7.7350 ca         1 7X1      -0.082000
     16 C16         -1.7300    -1.1860     6.5830 ca         1 7X1      -0.050600
     17 Cl1         -1.6180    -2.7050     5.7670 cl         1 7X1      -0.015400
     18 N18          1.9080    -0.0830     6.0690 nb         1 7X1      -0.721000
     19 C19          3.2350    -0.0210     6.0710 ca         1 7X1       0.682900
     20 N20          3.9230     0.0190     4.9410 nb         1 7X1      -0.692000
     21 C21          3.3040    -0.0010     3.7320 ca         1 7X1       0.455600
     22 C22          4.0330     0.0590     2.5280 ca         1 7X1      -0.249300
     23 C23          3.3790     0.0510     1.3200 ca         1 7X1       0.150100
     24 O24          4.0140     0.0980     0.1180 os         1 7X1      -0.280900
     25 C25          5.4150     0.3250     0.1670 c3         1 7X1       0.192400
     26 C26          5.8170     0.7140    -1.2680 c3         1 7X1      -0.036400
     27 C27          6.0360    -0.5510    -2.0940 c3         1 7X1       0.140800
     28 N28          6.3660    -0.2750    -3.5120 n3         1 7X1      -0.525600
     29 C29          7.8070     0.0010    -3.6920 c3         1 7X1       0.146300
     30 C30          8.0830     0.4070    -5.1520 c3         1 7X1      -0.019900
     31 C31          7.6040    -0.7060    -6.1050 c3         1 7X1      -0.023400
     32 C32          6.1680    -1.1650    -5.7770 c3         1 7X1      -0.019900
     33 C33          6.0420    -1.4870    -4.2710 c3         1 7X1       0.146300
     34 H1C1        -0.3610     0.8480     0.5690 h1         1 7X1      -0.001633
     35 H1C2        -0.3610     0.0680    -1.0190 h1         1 7X1      -0.001633
     36 H1C3        -0.3610    -0.9170     0.4500 h1         1 7X1      -0.001633
     37 H4           0.1580    -0.2310     2.3760 ha         1 7X1       0.119000
     38 H7          -0.6660    -0.3780     4.0550 hn         1 7X1       0.291800
     39 H111        -1.0240     4.0670     7.2800 h2         1 7X1       0.016200
     40 H112         0.1900     3.1390     8.2380 h2         1 7X1       0.016200
     41 H14         -3.1990     0.2470     9.2910 ha         1 7X1       0.122000
     42 H15         -3.0800    -1.9320     8.0910 ha         1 7X1       0.122000
     43 H19          3.7640     0.0040     7.0160 h5         1 7X1      -0.003900
     44 H22          5.1150     0.0980     2.5540 ha         1 7X1       0.136000
     45 H251         5.9310    -0.5790     0.4690 h1         1 7X1       0.008700
     46 H252         5.6400     1.1330     0.8520 h1         1 7X1       0.008700
     47 H261         6.7330     1.2910    -1.2420 hc         1 7X1       0.032200
     48 H262         5.0290     1.3060    -1.7160 hc         1 7X1       0.032200
     49 H271         5.1340    -1.1490    -2.0580 h1         1 7X1       0.013200
     50 H272         6.8470    -1.1180    -1.6530 h1         1 7X1       0.013200
     51 H291         8.3750    -0.8900    -3.4540 h1         1 7X1       0.009450
     52 H292         8.1020     0.8090    -3.0330 h1         1 7X1       0.009450
     53 H331         5.0280    -1.7960    -4.0490 h1         1 7X1       0.009450
     54 H332         6.7360    -2.2770    -4.0090 h1         1 7X1       0.009450
     55 H301         9.1470     0.5600    -5.2860 hc         1 7X1       0.016950
     56 H302         7.5510     1.3240    -5.3750 hc         1 7X1       0.016950
     57 H311         8.2720    -1.5540    -6.0190 hc         1 7X1       0.008700
     58 H312         7.6290    -0.3320    -7.1220 hc         1 7X1       0.008700
     59 H321         5.4730    -0.3740    -6.0330 hc         1 7X1       0.016950
     60 H322         5.9360    -2.0530    -6.3530 hc         1 7X1       0.016950
@<TRIPOS>BOND
     1     1     2 1   
     2     1    34 1   
     3     1    35 1   
     4     1    36 1   
     5     2     3 1   
     6     3     4 ar  
     7     3    23 ar  
     8     4     5 ar  
     9     4    37 1   
    10     5     6 ar  
    11     5    21 ar  
    12     6     7 1   
    13     6    18 ar  
    14     7     8 1   
    15     7    38 1   
    16     8     9 ar  
    17     8    16 ar  
    18     9    10 1   
    19     9    13 ar  
    20    10    11 1   
    21    11    12 1   
    22    11    39 1   
    23    11    40 1   
    24    12    13 1   
    25    13    14 ar  
    26    14    15 ar  
    27    14    41 1   
    28    15    16 ar  
    29    15    42 1   
    30    16    17 1   
    31    18    19 ar  
    32    19    20 ar  
    33    19    43 1   
    34    20    21 ar  
    35    21    22 ar  
    36    22    23 ar  
    37    22    44 1   
    38    23    24 1   
    39    24    25 1   
    40    25    26 1   
    41    25    45 1   
    42    25    46 1   
    43    26    27 1   
    44    26    47 1   
    45    26    48 1   
    46    27    28 1   
    47    27    49 1   
    48    27    50 1   
    49    28    29 1   
    50    28    33 1   
    51    29    30 1   
    52    29    51 1   
    53    29    52 1   
    54    30    31 1   
    55    30    55 1   
    56    30    56 1   
    57    31    32 1   
    58    31    57 1   
    59    31    58 1   
    60    32    33 1   
    61    32    59 1   
    62    32    60 1   
    63    33    53 1   
    64    33    54 1   
@<TRIPOS>SUBSTRUCTURE
     1 7X1         1 TEMP              0 ****  ****    0 ROOT
