@<TRIPOS>MOLECULE
molecule
   49    52     1     0     0
SMALL
bcc


@<TRIPOS>ATOM
      1 C1           0.0000     0.0000     0.0000 c3         1 7X2       0.123700
      2 O2           1.4260     0.0000     0.0000 os         1 7X2      -0.313400
      3 C3           2.0120     0.0000     1.2310 ca         1 7X2       0.141600
      4 C4           1.3200     0.0430     2.4290 ca         1 7X2      -0.244000
      5 C5           2.0350     0.0490     3.6380 ca         1 7X2       0.213600
      6 N6           1.3280     0.0900     4.8310 nu         1 7X2      -0.737300
      7 C7           1.8100    -0.0890     6.1120 ca         1 7X2       0.973900
      8 N8           0.9480     0.1540     7.1020 nb         1 7X2      -0.841000
      9 C9           1.2670    -0.0090     8.3750 ca         1 7X2       0.529200
     10 C10          2.5410    -0.4120     8.6640 ca         1 7X2      -0.478600
     11 C11          3.4610    -0.6650     7.6180 ca         1 7X2       0.768200
     12 N12          4.7720    -1.0810     7.8870 nu         1 7X2      -0.775300
     13 C13          5.2170    -1.3860     9.1930 ca         1 7X2       0.160600
     14 C14          4.7010    -2.4900     9.8930 ca         1 7X2       0.051100
     15 O15          3.7800    -3.4230     9.5070 os         1 7X2      -0.304900
     16 C16          3.3650    -4.0580    10.7340 c3         1 7X2       0.322200
     17 O17          4.4830    -3.9100    11.6360 os         1 7X2      -0.317900
     18 C18          5.1290    -2.7770    11.1940 ca         1 7X2       0.053100
     19 C19          6.0780    -1.9650    11.8180 ca         1 7X2      -0.103000
     20 C20          6.5780    -0.8430    11.1320 ca         1 7X2      -0.113000
     21 C21          6.1670    -0.5760     9.8280 ca         1 7X2       0.016400
     22 Cl1          6.7900     0.7940     8.9750 cl         1 7X2      -0.079400
     23 N23          3.0530    -0.5040     6.3530 nb         1 7X2      -0.835000
     24 C24          3.4150     0.0570     3.6690 ca         1 7X2      -0.244000
     25 C25          4.1140     0.0280     2.4840 ca         1 7X2       0.141600
     26 O26          5.4860     0.0200     2.5360 os         1 7X2      -0.313400
     27 C27          5.9900     1.2600     3.0110 c3         1 7X2       0.123700
     28 C28          3.4110    -0.0060     1.2660 ca         1 7X2       0.022100
     29 O29          4.0590    -0.0310     0.0670 os         1 7X2      -0.303900
     30 C30          4.8370    -1.2250     0.0230 c3         1 7X2       0.117700
     31 H1C1        -0.3610    -0.8690     0.5360 h1         1 7X2       0.039533
     32 H1C2        -0.3610    -0.0300    -1.0210 h1         1 7X2       0.039533
     33 H1C3        -0.3610     0.8990     0.4850 h1         1 7X2       0.039533
     34 H4           0.2500     0.2140     2.4310 ha         1 7X2       0.163000
     35 H6           0.3470     0.2720     4.7540 hn         1 7X2       0.457800
     36 H24          3.9410     0.0610     4.6160 ha         1 7X2       0.163000
     37 H9           0.5500     0.1920     9.1620 h4         1 7X2       0.031100
     38 H10          2.8410    -0.5570     9.6950 ha         1 7X2       0.142000
     39 H12          5.4170    -1.1660     7.1260 hn         1 7X2       0.467800
     40 H161         3.1810    -5.1100    10.5540 h2         1 7X2       0.076200
     41 H162         2.5030    -3.5400    11.1370 h2         1 7X2       0.076200
     42 H19          6.3960    -2.1740    12.8320 ha         1 7X2       0.157000
     43 H20          7.3140    -0.2050    11.6060 ha         1 7X2       0.159000
     44 H271         6.1410     1.2020     4.0820 h1         1 7X2       0.039533
     45 H272         5.2810     2.0470     2.7880 h1         1 7X2       0.039533
     46 H273         6.9340     1.4760     2.5250 h1         1 7X2       0.039533
     47 H301         5.8790    -0.9830     0.1930 h1         1 7X2       0.037700
     48 H302         4.4950    -1.9070     0.7920 h1         1 7X2       0.037700
     49 H303         4.7280    -1.6910    -0.9480 h1         1 7X2       0.037700
@<TRIPOS>BOND
     1     1     2 1   
     2     2     3 1   
     3     3     4 ar  
     4     3    28 ar  
     5     4     5 ar  
     6     5     6 1   
     7     5    24 ar  
     8     6     7 1   
     9     7     8 ar  
    10     7    23 ar  
    11     8     9 ar  
    12     9    10 ar  
    13    10    11 ar  
    14    11    12 1   
    15    11    23 ar  
    16    12    13 1   
    17    13    14 ar  
    18    13    21 ar  
    19    14    15 1   
    20    14    18 ar  
    21    15    16 1   
    22    16    17 1   
    23    17    18 1   
    24    18    19 ar  
    25    19    20 ar  
    26    20    21 ar  
    27    21    22 1   
    28    24    25 ar  
    29    25    26 1   
    30    25    28 ar  
    31    26    27 1   
    32    28    29 1   
    33    29    30 1   
    34     1    31 1   
    35     1    32 1   
    36     1    33 1   
    37     4    34 1   
    38     6    35 1   
    39    24    36 1   
    40     9    37 1   
    41    10    38 1   
    42    12    39 1   
    43    16    40 1   
    44    16    41 1   
    45    19    42 1   
    46    20    43 1   
    47    27    44 1   
    48    27    45 1   
    49    27    46 1   
    50    30    47 1   
    51    30    48 1   
    52    30    49 1   
@<TRIPOS>SUBSTRUCTURE
     1 7X2         1 TEMP              0 ****  ****    0 ROOT
