@<TRIPOS>MOLECULE
7X2
   49    52     1     0     0
SMALL
bcc


@<TRIPOS>ATOM
      1 C1           0.0000     0.0000     0.0000 c3         1 7X2       0.242200
      2 O2           1.4260     0.0000     0.0000 os         1 7X2      -0.299400
      3 C3           2.0120     0.0000     1.2310 ca         1 7X2       0.152100
      4 C4           1.3200     0.0430     2.4290 ca         1 7X2      -0.238500
      5 C5           2.0350     0.0490     3.6380 ca         1 7X2       0.055600
      6 N6           1.3280     0.0900     4.8310 nu         1 7X2      -0.262300
      7 C7           1.8100    -0.0890     6.1120 ca         1 7X2       0.739900
      8 N8           0.9480     0.1540     7.1020 nb         1 7X2      -0.749000
      9 C9           1.2670    -0.0090     8.3750 ca         1 7X2       0.530200
     10 C10          2.5410    -0.4120     8.6640 ca         1 7X2      -0.473600
     11 C11          3.4610    -0.6650     7.6180 ca         1 7X2       0.579200
     12 N12          4.7720    -1.0810     7.8870 nu         1 7X2      -0.321300
     13 C13          5.2170    -1.3860     9.1930 ca         1 7X2       0.002600
     14 C14          4.7010    -2.4900     9.8930 ca         1 7X2       0.066100
     15 O15          3.7800    -3.4230     9.5070 os         1 7X2      -0.297900
     16 C16          3.3650    -4.0580    10.7340 c3         1 7X2       0.425200
     17 O17          4.4830    -3.9100    11.6360 os         1 7X2      -0.307900
     18 C18          5.1290    -2.7770    11.1940 ca         1 7X2       0.060100
     19 C19          6.0780    -1.9650    11.8180 ca         1 7X2      -0.070000
     20 C20          6.5780    -0.8430    11.1320 ca         1 7X2      -0.089000
     21 C21          6.1670    -0.5760     9.8280 ca         1 7X2      -0.047600
     22 Cl1          6.7900     0.7940     8.9750 cl         1 7X2       0.000600
     23 N23          3.0530    -0.5040     6.3530 nb         1 7X2      -0.734000
     24 C24          3.4150     0.0570     3.6690 ca         1 7X2      -0.238500
     25 C25          4.1140     0.0280     2.4840 ca         1 7X2       0.152100
     26 O26          5.4860     0.0200     2.5360 os         1 7X2      -0.299400
     27 C27          5.9900     1.2600     3.0110 c3         1 7X2       0.242200
     28 C28          3.4110    -0.0060     1.2660 ca         1 7X2       0.024100
     29 O29          4.0590    -0.0310     0.0670 os         1 7X2      -0.291900
     30 C30          4.8370    -1.2250     0.0230 c3         1 7X2       0.228700
     31 H1C1        -0.3610    -0.8690     0.5360 h1         1 7X2      -0.005633
     32 H1C2        -0.3610    -0.0300    -1.0210 h1         1 7X2      -0.005633
     33 H1C3        -0.3610     0.8990     0.4850 h1         1 7X2      -0.005633
     34 H4           0.2500     0.2140     2.4310 ha         1 7X2       0.147500
     35 H6           0.3470     0.2720     4.7540 hn         1 7X2       0.282800
     36 H24          3.9410     0.0610     4.6160 ha         1 7X2       0.147500
     37 H9           0.5500     0.1920     9.1620 h4         1 7X2      -0.019900
     38 H10          2.8410    -0.5570     9.6950 ha         1 7X2       0.129000
     39 H12          5.4170    -1.1660     7.1260 hn         1 7X2       0.299800
     40 H161         3.1810    -5.1100    10.5540 h2         1 7X2       0.018200
     41 H162         2.5030    -3.5400    11.1370 h2         1 7X2       0.018200
     42 H19          6.3960    -2.1740    12.8320 ha         1 7X2       0.120000
     43 H20          7.3140    -0.2050    11.6060 ha         1 7X2       0.123000
     44 H271         6.1410     1.2020     4.0820 h1         1 7X2      -0.005633
     45 H272         5.2810     2.0470     2.7880 h1         1 7X2      -0.005633
     46 H273         6.9340     1.4760     2.5250 h1         1 7X2      -0.005633
     47 H301         5.8790    -0.9830     0.1930 h1         1 7X2      -0.004633
     48 H302         4.4950    -1.9070     0.7920 h1         1 7X2      -0.004633
     49 H303         4.7280    -1.6910    -0.9480 h1         1 7X2      -0.004633
@<TRIPOS>BOND
     1     1     2 1   
     2     1    31 1   
     3     1    32 1   
     4     1    33 1   
     5     2     3 1   
     6     3     4 ar  
     7     3    28 ar  
     8     4     5 ar  
     9     4    34 1   
    10     5     6 1   
    11     5    24 ar  
    12     6     7 1   
    13     6    35 1   
    14     7     8 ar  
    15     7    23 ar  
    16     8     9 ar  
    17     9    10 ar  
    18     9    37 1   
    19    10    11 ar  
    20    10    38 1   
    21    11    12 1   
    22    11    23 ar  
    23    12    13 1   
    24    12    39 1   
    25    13    14 ar  
    26    13    21 ar  
    27    14    15 1   
    28    14    18 ar  
    29    15    16 1   
    30    16    17 1   
    31    16    40 1   
    32    16    41 1   
    33    17    18 1   
    34    18    19 ar  
    35    19    20 ar  
    36    19    42 1   
    37    20    21 ar  
    38    20    43 1   
    39    21    22 1   
    40    24    25 ar  
    41    24    36 1   
    42    25    26 1   
    43    25    28 ar  
    44    26    27 1   
    45    27    44 1   
    46    27    45 1   
    47    27    46 1   
    48    28    29 1   
    49    29    30 1   
    50    30    47 1   
    51    30    48 1   
    52    30    49 1   
@<TRIPOS>SUBSTRUCTURE
     1 7X2         1 TEMP              0 ****  ****    0 ROOT
