@<TRIPOS>MOLECULE
7X3
   49    51     1     0     0
SMALL
bcc


@<TRIPOS>ATOM
      1 C1           0.0000     0.0000     0.0000 c3         1 7X3       0.222700
      2 O2           1.4320     0.0000     0.0000 os         1 7X3      -0.276900
      3 C3           1.8540     0.0000     1.3290 ca         1 7X3       0.104100
      4 C4           0.9690    -0.0950     2.4000 ca         1 7X3      -0.161000
      5 C5           1.4420    -0.0730     3.7070 ca         1 7X3      -0.114000
      6 C6           2.7970     0.0350     3.9550 ca         1 7X3      -0.028400
      7 N7           3.1790     0.0700     5.3040 nu         1 7X3      -0.246300
      8 C8           4.4380    -0.2220     5.7810 ca         1 7X3       0.753900
      9 N9           4.6430    -0.0480     7.1160 nb         1 7X3      -0.798000
     10 C10          5.8180    -0.3030     7.6430 ca         1 7X3       0.760900
     11 N11          6.8020    -0.7480     6.8600 nb         1 7X3      -0.810000
     12 C12          6.6060    -0.9380     5.5420 ca         1 7X3       0.765900
     13 N13          7.6800    -1.4090     4.7930 nu         1 7X3      -0.266300
     14 C14          7.5770    -1.7770     3.4400 ca         1 7X3       0.060600
     15 C15          6.3760    -2.2160     2.8430 ca         1 7X3      -0.239000
     16 C16          6.4170    -2.5750     1.4860 ca         1 7X3       0.172100
     17 O17          5.3300    -2.9980     0.7740 os         1 7X3      -0.285900
     18 C18          4.1950    -3.4570     1.5380 c3         1 7X3       0.231700
     19 C19          7.6310    -2.5030     0.7740 ca         1 7X3       0.011100
     20 O20          7.7320    -2.8580    -0.5460 os         1 7X3      -0.290900
     21 C21          7.3120    -1.7160    -1.3120 c3         1 7X3       0.228700
     22 C22          8.8130    -2.0890     1.3780 ca         1 7X3       0.172100
     23 O23          9.9500    -2.0630     0.5860 os         1 7X3      -0.285900
     24 C24         11.1150    -1.5020     1.2300 c3         1 7X3       0.231700
     25 C25          8.7660    -1.7390     2.7090 ca         1 7X3      -0.239000
     26 N26          5.4130    -0.6790     4.9740 nb         1 7X3      -0.781000
     27 C27          3.7040     0.1310     2.8930 ca         1 7X3      -0.083000
     28 C28          3.2030     0.1130     1.6020 ca         1 7X3      -0.057600
     29 Cl1          4.2580     0.1920     0.2600 cl         1 7X3       0.008600
     30 H1C1        -0.3610    -0.9170     0.4500 h1         1 7X3       0.000700
     31 H1C2        -0.3610     0.8480     0.5680 h1         1 7X3       0.000700
     32 H1C3        -0.3610     0.0680    -1.0190 h1         1 7X3       0.000700
     33 H4          -0.0950    -0.1800     2.2140 ha         1 7X3       0.126000
     34 H5           0.7460    -0.1480     4.5330 ha         1 7X3       0.111000
     35 H7           2.4820     0.3280     5.9740 hn         1 7X3       0.292800
     36 H27          4.7680     0.2180     3.0750 ha         1 7X3       0.164000
     37 H10          5.9850    -0.1600     8.7040 h5         1 7X3       0.001100
     38 H13          8.5710    -1.4900     5.2400 hn         1 7X3       0.296800
     39 H15          5.5490    -2.5380     3.4640 ha         1 7X3       0.134000
     40 H25          9.6760    -1.4130     3.1990 ha         1 7X3       0.134000
     41 H181         3.8750    -2.6750     2.2150 h1         1 7X3      -0.000300
     42 H182         4.4750    -4.3360     2.1070 h1         1 7X3      -0.000300
     43 H183         3.3840    -3.7070     0.8650 h1         1 7X3      -0.000300
     44 H211         6.3240    -1.8960    -1.7170 h1         1 7X3      -0.005633
     45 H212         8.0100    -1.5480    -2.1240 h1         1 7X3      -0.005633
     46 H213         7.2860    -0.8420    -0.6720 h1         1 7X3      -0.005633
     47 H241        11.3910    -2.1180     2.0770 h1         1 7X3      -0.000300
     48 H242        11.9360    -1.4680     0.5240 h1         1 7X3      -0.000300
     49 H243        10.8910    -0.4980     1.5710 h1         1 7X3      -0.000300
@<TRIPOS>BOND
     1     1     2 1   
     2     1    30 1   
     3     1    31 1   
     4     1    32 1   
     5     2     3 1   
     6     3     4 ar  
     7     3    28 ar  
     8     4     5 ar  
     9     4    33 1   
    10     5     6 ar  
    11     5    34 1   
    12     6     7 1   
    13     6    27 ar  
    14     7     8 1   
    15     7    35 1   
    16     8     9 ar  
    17     8    26 ar  
    18     9    10 ar  
    19    10    11 ar  
    20    10    37 1   
    21    11    12 ar  
    22    12    13 1   
    23    12    26 ar  
    24    13    14 1   
    25    13    38 1   
    26    14    15 ar  
    27    14    25 ar  
    28    15    16 ar  
    29    15    39 1   
    30    16    17 1   
    31    16    19 ar  
    32    17    18 1   
    33    18    41 1   
    34    18    42 1   
    35    18    43 1   
    36    19    20 1   
    37    19    22 ar  
    38    20    21 1   
    39    21    44 1   
    40    21    45 1   
    41    21    46 1   
    42    22    23 1   
    43    22    25 ar  
    44    23    24 1   
    45    24    47 1   
    46    24    48 1   
    47    24    49 1   
    48    25    40 1   
    49    27    28 ar  
    50    27    36 1   
    51    28    29 1   
@<TRIPOS>SUBSTRUCTURE
     1 7X3         1 TEMP              0 ****  ****    0 ROOT
