@<TRIPOS>MOLECULE
molecule
   49    51     1     0     0
SMALL
bcc


@<TRIPOS>ATOM
      1 C1           0.0000     0.0000     0.0000 c3         1 7X3       0.105700
      2 O2           1.4320     0.0000     0.0000 os         1 7X3      -0.287900
      3 C3           1.8540     0.0000     1.3290 ca         1 7X3       0.091100
      4 C4           0.9690    -0.0950     2.4000 ca         1 7X3      -0.173000
      5 C5           1.4420    -0.0730     3.7070 ca         1 7X3      -0.148000
      6 C6           2.7970     0.0350     3.9550 ca         1 7X3       0.140600
      7 N7           3.1790     0.0700     5.3040 nu         1 7X3      -0.732300
      8 C8           4.4380    -0.2220     5.7810 ca         1 7X3       0.970900
      9 N9           4.6430    -0.0480     7.1160 nb         1 7X3      -0.872000
     10 C10          5.8180    -0.3030     7.6430 ca         1 7X3       0.780900
     11 N11          6.8020    -0.7480     6.8600 nb         1 7X3      -0.883000
     12 C12          6.6060    -0.9380     5.5420 ca         1 7X3       0.977900
     13 N13          7.6800    -1.4090     4.7930 nu         1 7X3      -0.740300
     14 C14          7.5770    -1.7770     3.4400 ca         1 7X3       0.219600
     15 C15          6.3760    -2.2160     2.8430 ca         1 7X3      -0.254500
     16 C16          6.4170    -2.5750     1.4860 ca         1 7X3       0.166100
     17 O17          5.3300    -2.9980     0.7740 os         1 7X3      -0.302900
     18 C18          4.1950    -3.4570     1.5380 c3         1 7X3       0.119700
     19 C19          7.6310    -2.5030     0.7740 ca         1 7X3       0.009100
     20 O20          7.7320    -2.8580    -0.5460 os         1 7X3      -0.299900
     21 C21          7.3120    -1.7160    -1.3120 c3         1 7X3       0.115700
     22 C22          8.8130    -2.0890     1.3780 ca         1 7X3       0.166100
     23 O23          9.9500    -2.0630     0.5860 os         1 7X3      -0.302900
     24 C24         11.1150    -1.5020     1.2300 c3         1 7X3       0.119700
     25 C25          8.7660    -1.7390     2.7090 ca         1 7X3      -0.254500
     26 N26          5.4130    -0.6790     4.9740 nb         1 7X3      -0.850000
     27 C27          3.7040     0.1310     2.8930 ca         1 7X3      -0.106000
     28 C28          3.2030     0.1130     1.6020 ca         1 7X3       0.016400
     29 Cl1          4.2580     0.1920     0.2600 cl         1 7X3      -0.070400
     30 H1C1        -0.3610    -0.9170     0.4500 h1         1 7X3       0.042700
     31 H1C2        -0.3610     0.8480     0.5680 h1         1 7X3       0.042700
     32 H1C3        -0.3610     0.0680    -1.0190 h1         1 7X3       0.042700
     33 H4          -0.0950    -0.1800     2.2140 ha         1 7X3       0.145000
     34 H5           0.7460    -0.1480     4.5330 ha         1 7X3       0.137000
     35 H7           2.4820     0.3280     5.9740 hn         1 7X3       0.468800
     36 H27          4.7680     0.2180     3.0750 ha         1 7X3       0.192000
     37 H10          5.9850    -0.1600     8.7040 h5         1 7X3       0.068100
     38 H13          8.5710    -1.4900     5.2400 hn         1 7X3       0.471800
     39 H15          5.5490    -2.5380     3.4640 ha         1 7X3       0.148000
     40 H25          9.6760    -1.4130     3.1990 ha         1 7X3       0.148000
     41 H181         3.8750    -2.6750     2.2150 h1         1 7X3       0.043533
     42 H182         4.4750    -4.3360     2.1070 h1         1 7X3       0.043533
     43 H183         3.3840    -3.7070     0.8650 h1         1 7X3       0.043533
     44 H211         6.3240    -1.8960    -1.7170 h1         1 7X3       0.036033
     45 H212         8.0100    -1.5480    -2.1240 h1         1 7X3       0.036033
     46 H213         7.2860    -0.8420    -0.6720 h1         1 7X3       0.036033
     47 H241        11.3910    -2.1180     2.0770 h1         1 7X3       0.043533
     48 H242        11.9360    -1.4680     0.5240 h1         1 7X3       0.043533
     49 H243        10.8910    -0.4980     1.5710 h1         1 7X3       0.043533
@<TRIPOS>BOND
     1     1     2 1
     2     2     3 1
     3     3     4 ar
     4     3    28 ar
     5     4     5 ar
     6     5     6 ar
     7     6     7 1
     8     6    27 ar
     9     7     8 1
    10     8     9 ar
    11     8    26 ar
    12     9    10 ar
    13    10    11 ar
    14    11    12 ar
    15    12    13 1
    16    12    26 ar
    17    13    14 1
    18    14    15 ar
    19    14    25 ar
    20    15    16 ar
    21    16    17 1
    22    16    19 ar
    23    17    18 1
    24    19    20 1
    25    19    22 ar
    26    20    21 1
    27    22    23 1
    28    22    25 ar
    29    23    24 1
    30    27    28 ar
    31    28    29 1
    32     1    30 1
    33     1    31 1
    34     1    32 1
    35     4    33 1
    36     5    34 1
    37     7    35 1
    38    27    36 1
    39    10    37 1
    40    13    38 1
    41    15    39 1
    42    25    40 1
    43    18    41 1
    44    18    42 1
    45    18    43 1
    46    21    44 1
    47    21    45 1
    48    21    46 1
    49    24    47 1
    50    24    48 1
    51    24    49 1
@<TRIPOS>SUBSTRUCTURE
     1 7X3         1 TEMP              0 ****  ****    0 ROOT
