@<TRIPOS>MOLECULE
molecule
   43    46     1     0     0
SMALL
bcc


@<TRIPOS>ATOM
      1 C11          0.0000     0.0000     0.0000 ca         1 7X4       0.954900
      2 N12          1.3260     0.0000     0.0000 nb         1 7X4      -0.837000
      3 C13          2.0700     0.0000     1.1250 ca         1 7X4       0.532200
      4 C14          1.3910    -0.0280     2.3150 ca         1 7X4      -0.440600
      5 C15         -0.0260    -0.0300     2.3130 ca         1 7X4       0.772200
      6 N16         -0.7320    -0.0390     3.5200 nu         1 7X4      -0.767300
      7 C17         -0.0990     0.0240     4.7750 ca         1 7X4       0.148600
      8 C18          0.5750     1.1850     5.1790 ca         1 7X4       0.032100
      9 O19          0.7230     2.3700     4.4980 os         1 7X4      -0.311900
     10 C20          1.7910     3.0510     5.2050 c3         1 7X4       0.327200
     11 O21          1.7540     2.4810     6.5560 os         1 7X4      -0.317900
     12 C22          1.2030     1.2450     6.4270 ca         1 7X4       0.074100
     13 C23          1.1910     0.1600     7.3140 ca         1 7X4      -0.091000
     14 C24          0.5300    -0.9950     6.8530 ca         1 7X4      -0.108000
     15 C25         -0.1220    -1.0800     5.6110 ca         1 7X4       0.021400
     16 Cl2         -0.9520    -2.5390     5.0650 cl         1 7X4      -0.085400
     17 N27         -0.6940    -0.0050     1.1510 nb         1 7X4      -0.852000
     18 N1          -3.6800    -0.6100    -5.7130 nz         1 7X4      -0.803500
     19 O3          -2.8770     1.7220    -5.4700 o          1 7X4      -0.503300
     20 O4          -5.2880     1.2500    -5.0920 o          1 7X4      -0.503300
     21 C5          -3.5590     0.6210    -3.2790 ca         1 7X4      -0.288500
     22 C6          -4.5510     0.6840    -2.3110 ca         1 7X4      -0.055000
     23 C7          -4.2400     0.4980    -0.9730 ca         1 7X4      -0.100000
     24 C8          -2.9190     0.2660    -0.5900 ca         1 7X4      -0.072000
     25 C9          -1.9260     0.2100    -1.5660 ca         1 7X4       0.201600
     26 N10         -0.5810    -0.0060    -1.2680 nu         1 7X4      -0.743300
     27 C28         -2.2510     0.3990    -2.9180 ca         1 7X4      -0.139000
     28 H10          0.0290    -0.1840    -2.0410 hn         1 7X4       0.467800
     29 H13          3.1530     0.0010     1.0900 h4         1 7X4       0.047100
     30 H14          1.9350    -0.0300     3.2520 ha         1 7X4       0.158000
     31 H16         -1.7310    -0.0920     3.4910 hn         1 7X4       0.463800
     32 H201         1.5810     4.1130     5.2500 h2         1 7X4       0.082200
     33 H202         2.7420     2.8240     4.7380 h2         1 7X4       0.082200
     34 H23          1.6860     0.1950     8.2770 ha         1 7X4       0.174000
     35 H24          0.5070    -1.8630     7.5010 ha         1 7X4       0.158000
     36 H1N1        -2.7010    -0.8120    -5.7610 hn         1 7X4       0.492133
     37 H1N2        -4.1430    -1.3260    -5.1890 hn         1 7X4       0.492133
     38 H6          -5.5780     0.8650    -2.6050 ha         1 7X4       0.162000
     39 H28         -1.4780     0.3550    -3.6750 ha         1 7X4       0.135000
     40 H7          -5.0210     0.5470    -0.2240 ha         1 7X4       0.167000
     41 H8          -2.6700     0.1200     0.4540 ha         1 7X4       0.208000
     42 H131        -4.0600    -0.5800    -6.6390 hn         1 7X4       0.492133
     43 S2          -3.9060     0.8540    -4.9860 sy         1 7X4       1.173200
@<TRIPOS>BOND
     1     1     2 ar
     2     1    17 ar
     3     1    26 1
     4     2     3 ar
     5     3     4 ar
     6     4     5 ar
     7     5     6 1
     8     5    17 ar
     9     6     7 1
    10     7     8 ar
    11     7    15 ar
    12     8     9 1
    13     8    12 ar
    14     9    10 1
    15    10    11 1
    16    11    12 1
    17    12    13 ar
    18    13    14 ar
    19    14    15 ar
    20    15    16 1
    21    18    43 1
    22    43    19 2
    23    43    20 2
    24    43    21 1
    25    21    22 ar
    26    21    27 ar
    27    22    23 ar
    28    23    24 ar
    29    24    25 ar
    30    25    26 1
    31    25    27 ar
    32    26    28 1
    33     3    29 1
    34     4    30 1
    35     6    31 1
    36    10    32 1
    37    10    33 1
    38    13    34 1
    39    14    35 1
    40    18    36 1
    41    18    37 1
    42    22    38 1
    43    27    39 1
    44    23    40 1
    45    24    41 1
    46    42    18 1
@<TRIPOS>SUBSTRUCTURE
     1 7X4         1 TEMP              0 ****  ****    0 ROOT
