@<TRIPOS>MOLECULE
7X4
   43    46     1     0     0
SMALL
bcc


@<TRIPOS>ATOM
      1 C11          0.0000     0.0000     0.0000 ca         1 7X4       0.723900
      2 N12          1.3260     0.0000     0.0000 nb         1 7X4      -0.740000
      3 C13          2.0700     0.0000     1.1250 ca         1 7X4       0.533200
      4 C14          1.3910    -0.0280     2.3150 ca         1 7X4      -0.428600
      5 C15         -0.0260    -0.0300     2.3130 ca         1 7X4       0.578200
      6 N16         -0.7320    -0.0390     3.5200 nu         1 7X4      -0.299300
      7 C17         -0.0990     0.0240     4.7750 ca         1 7X4      -0.016400
      8 C18          0.5750     1.1850     5.1790 ca         1 7X4       0.049100
      9 O19          0.7230     2.3700     4.4980 os         1 7X4      -0.306900
     10 C20          1.7910     3.0510     5.2050 c3         1 7X4       0.431200
     11 O21          1.7540     2.4810     6.5560 os         1 7X4      -0.306900
     12 C22          1.2030     1.2450     6.4270 ca         1 7X4       0.082100
     13 C23          1.1910     0.1600     7.3140 ca         1 7X4      -0.055000
     14 C24          0.5300    -0.9950     6.8530 ca         1 7X4      -0.081000
     15 C25         -0.1220    -1.0800     5.6110 ca         1 7X4      -0.044600
     16 Cl2         -0.9520    -2.5390     5.0650 cl         1 7X4       0.000600
     17 N27         -0.6940    -0.0050     1.1510 nb         1 7X4      -0.748000
     18 N1          -3.6800    -0.6100    -5.7130 nz         1 7X4      -0.129500
     19 O3          -2.8770     1.7220    -5.4700 o          1 7X4      -0.481300
     20 O4          -5.2880     1.2500    -5.0920 o          1 7X4      -0.481300
     21 C5          -3.5590     0.6210    -3.2790 ca         1 7X4      -0.167500
     22 C6          -4.5510     0.6840    -2.3110 ca         1 7X4      -0.026000
     23 C7          -4.2400     0.4980    -0.9730 ca         1 7X4      -0.066000
     24 C8          -2.9190     0.2660    -0.5900 ca         1 7X4      -0.060000
     25 C9          -1.9260     0.2100    -1.5660 ca         1 7X4       0.036600
     26 N10         -0.5810    -0.0060    -1.2680 nu         1 7X4      -0.273300
     27 C28         -2.2510     0.3990    -2.9180 ca         1 7X4      -0.113000
     28 H10          0.0290    -0.1840    -2.0410 hn         1 7X4       0.292800
     29 H13          3.1530     0.0010     1.0900 h4         1 7X4      -0.005900
     30 H14          1.9350    -0.0300     3.2520 ha         1 7X4       0.140000
     31 H16         -1.7310    -0.0920     3.4910 hn         1 7X4       0.293800
     32 H201         1.5810     4.1130     5.2500 h2         1 7X4       0.022700
     33 H202         2.7420     2.8240     4.7380 h2         1 7X4       0.022700
     34 H23          1.6860     0.1950     8.2770 ha         1 7X4       0.135000
     35 H24          0.5070    -1.8630     7.5010 ha         1 7X4       0.120000
     36 H1N1        -2.7010    -0.8120    -5.7610 hn         1 7X4       0.313467
     37 H1N2        -4.1430    -1.3260    -5.1890 hn         1 7X4       0.313467
     38 H6          -5.5780     0.8650    -2.6050 ha         1 7X4       0.132000
     39 H28         -1.4780     0.3550    -3.6750 ha         1 7X4       0.114000
     40 H7          -5.0210     0.5470    -0.2240 ha         1 7X4       0.128000
     41 H8          -2.6700     0.1200     0.4540 ha         1 7X4       0.172000
     42 H131        -4.0600    -0.5800    -6.6390 hn         1 7X4       0.313467
     43 S2          -3.9060     0.8540    -4.9860 sy         1 7X4       0.883200
@<TRIPOS>BOND
     1     1     2 ar  
     2     1    17 ar  
     3     1    26 1   
     4     2     3 ar  
     5     3     4 ar  
     6     3    29 1   
     7     4     5 ar  
     8     4    30 1   
     9     5     6 1   
    10     5    17 ar  
    11     6     7 1   
    12     6    31 1   
    13     7     8 ar  
    14     7    15 ar  
    15     8     9 1   
    16     8    12 ar  
    17     9    10 1   
    18    10    11 1   
    19    10    32 1   
    20    10    33 1   
    21    11    12 1   
    22    12    13 ar  
    23    13    14 ar  
    24    13    34 1   
    25    14    15 ar  
    26    14    35 1   
    27    15    16 1   
    28    18    36 1   
    29    18    37 1   
    30    18    42 1   
    31    18    43 1   
    32    19    43 2   
    33    20    43 2   
    34    21    22 ar  
    35    21    27 ar  
    36    21    43 1   
    37    22    23 ar  
    38    22    38 1   
    39    23    24 ar  
    40    23    40 1   
    41    24    25 ar  
    42    24    41 1   
    43    25    26 1   
    44    25    27 ar  
    45    26    28 1   
    46    27    39 1   
@<TRIPOS>SUBSTRUCTURE
     1 7X4         1 TEMP              0 ****  ****    0 ROOT
