@<TRIPOS>MOLECULE
molecule
   43    46     1     0     0
SMALL
bcc


@<TRIPOS>ATOM
      1 N1           0.0000     0.0000     0.0000 nu         1 7X5      -0.756300
      2 C7           1.4090     0.0000     0.0000 ca         1 7X5       0.936900
      3 N2           1.9060     0.0000     1.2480 nb         1 7X5      -0.796000
      4 C8           3.2380     0.0190     1.3720 ca         1 7X5       0.500200
      5 C9           4.0690     0.0360     0.2890 ca         1 7X5      -0.452600
      6 C10          3.4690     0.0360    -0.9650 ca         1 7X5       0.759200
      7 N3           4.2640     0.0500    -2.1410 nu         1 7X5      -0.782300
      8 C11          5.6630    -0.0100    -2.1370 ca         1 7X5       0.169600
      9 C12          6.3460    -1.1390    -1.7250 ca         1 7X5       0.037100
     10 O3           5.7510    -2.2910    -1.2580 os         1 7X5      -0.284900
     11 C13          6.9180    -2.9900    -0.7750 c3         1 7X5       0.294200
     12 O4           8.1590    -2.4380    -1.2860 os         1 7X5      -0.298900
     13 C14          7.7010    -1.2210    -1.7430 ca         1 7X5       0.055100
     14 C15          8.4820    -0.1690    -2.1570 ca         1 7X5      -0.104000
     15 C16          7.8220     0.9740    -2.5640 ca         1 7X5      -0.115000
     16 C17          6.4380     1.0530    -2.5660 ca         1 7X5       0.011400
     17 Cl1          5.6450     2.4970    -3.0930 cl         1 7X5      -0.082400
     18 N4           2.1450     0.0140    -1.1240 nb         1 7X5      -0.811000
     19 C1           0.1140     2.2930    -5.1080 c3         1 7X5      -0.242300
     20 O1          -1.4940     0.5980    -6.1490 o          1 7X5      -0.603300
     21 O2           0.8010    -0.1880    -5.4610 o          1 7X5      -0.603300
     22 C2          -1.0460     0.3130    -3.5730 ca         1 7X5      -0.237500
     23 C3          -2.4050     0.1310    -3.4460 ca         1 7X5      -0.074000
     24 C4          -2.9390    -0.0850    -2.1950 ca         1 7X5      -0.117000
     25 C5          -2.1270    -0.1240    -1.0830 ca         1 7X5      -0.134000
     26 C6          -0.7650     0.0550    -1.1940 ca         1 7X5       0.159600
     27 C18         -0.2270     0.2760    -2.4560 ca         1 7X5      -0.069000
     28 H1          -0.4810    -0.0400     0.8770 hn         1 7X5       0.474800
     29 H8           3.6710     0.0190     2.3650 h4         1 7X5       0.025100
     30 H9           5.1460     0.0520     0.4020 ha         1 7X5       0.156000
     31 H3           3.7970     0.1070    -3.0240 hn         1 7X5       0.470800
     32 H131         6.9350    -2.9110     0.3050 h2         1 7X5       0.071200
     33 H132         6.8510    -4.0210    -1.0980 h2         1 7X5       0.071200
     34 H15          9.5640    -0.2300    -2.1550 ha         1 7X5       0.163000
     35 H16          8.4000     1.8250    -2.9060 ha         1 7X5       0.155000
     36 H1C1         0.4610     2.6260    -6.0780 h1         1 7X5       0.100700
     37 H1C2        -0.7330     2.8940    -4.8000 h1         1 7X5       0.100700
     38 H1C3         0.9130     2.3970    -4.3840 h1         1 7X5       0.100700
     39 HA          -3.0460     0.1610    -4.3190 ha         1 7X5       0.160000
     40 H18          0.8410     0.4170    -2.5680 ha         1 7X5       0.184000
     41 H4          -4.0070    -0.2280    -2.0850 ha         1 7X5       0.139000
     42 H5          -2.5650    -0.2950    -0.1070 ha         1 7X5       0.133000
     43 S1          -0.3910     0.5980    -5.2120 sy         1 7X5       1.133300
@<TRIPOS>BOND
     1     1     2 1
     2     1    26 1
     3     2     3 ar
     4     2    18 ar
     5     3     4 ar
     6     4     5 ar
     7     5     6 ar
     8     6     7 1
     9     6    18 ar
    10     7     8 1
    11     8     9 ar
    12     8    16 ar
    13     9    10 1
    14     9    13 ar
    15    10    11 1
    16    11    12 1
    17    12    13 1
    18    13    14 ar
    19    14    15 ar
    20    15    16 ar
    21    16    17 1
    22    19    43 1
    23    43    20 2
    24    43    21 2
    25    43    22 1
    26    22    23 ar
    27    22    27 ar
    28    23    24 ar
    29    24    25 ar
    30    25    26 ar
    31    26    27 ar
    32     1    28 1
    33     4    29 1
    34     5    30 1
    35     7    31 1
    36    11    32 1
    37    11    33 1
    38    14    34 1
    39    15    35 1
    40    19    36 1
    41    19    37 1
    42    19    38 1
    43    23    39 1
    44    27    40 1
    45    24    41 1
    46    25    42 1
@<TRIPOS>SUBSTRUCTURE
     1 7X5         1 TEMP              0 ****  ****    0 ROOT
