@<TRIPOS>MOLECULE
7X6
   45    48     1     0     0
SMALL
bcc


@<TRIPOS>ATOM
      1 N2           0.0000     0.0000     0.0000 nu         1 7X6      -0.294300
      2 C7           1.3900     0.0000     0.0000 ca         1 7X6       0.728900
      3 N3           1.8830     0.0000     1.2520 nb         1 7X6      -0.749000
      4 C8           3.2270     0.0180     1.3640 ca         1 7X6       0.524200
      5 C9           4.0150     0.0530     0.2290 ca         1 7X6      -0.462600
      6 C10          3.4040     0.0740    -1.0140 ca         1 7X6       0.584200
      7 N4           4.1420     0.1090    -2.2100 nu         1 7X6      -0.337300
      8 C11          5.5590     0.0910    -2.2270 ca         1 7X6       0.014600
      9 C12          6.2650    -1.0500    -1.8890 ca         1 7X6       0.052100
     10 O3           5.6820    -2.2400    -1.4850 os         1 7X6      -0.287900
     11 C13          6.8690    -2.9820    -1.0820 c3         1 7X6       0.403200
     12 O4           8.0890    -2.3640    -1.5530 os         1 7X6      -0.295900
     13 C14          7.6330    -1.1240    -1.9230 ca         1 7X6       0.067100
     14 C15          8.4150    -0.0520    -2.2720 ca         1 7X6      -0.078000
     15 C16          7.7250     1.1170    -2.6050 ca         1 7X6      -0.090000
     16 C17          6.3220     1.1920    -2.5980 ca         1 7X6      -0.039600
     17 Cl1          5.4860     2.6780    -3.0420 cl         1 7X6      -0.007400
     18 N5           2.0880     0.0340    -1.1350 nb         1 7X6      -0.715000
     19 C1           0.3900     2.8720    -4.6940 c3         1 7X6       0.006700
     20 S1           0.4980     1.2270    -5.3570 s6         1 7X6       0.860900
     21 O1           1.7360     0.6860    -4.8110 o          1 7X6      -0.563300
     22 O2           0.3400     1.3430    -6.8040 o          1 7X6      -0.563300
     23 C2          -1.3010     0.3370    -3.4560 ca         1 7X6       0.102600
     24 C3          -2.6540     0.2440    -3.1920 ca         1 7X6      -0.189000
     25 C4          -3.0980     0.0910    -1.8960 ca         1 7X6      -0.035000
     26 C5          -2.1940     0.0100    -0.8640 ca         1 7X6      -0.194000
     27 C6          -0.8280     0.0950    -1.1340 ca         1 7X6       0.060600
     28 C18         -0.3640     0.2500    -2.4280 ca         1 7X6      -0.210000
     29 H2          -0.4540    -0.0750     0.8890 hn         1 7X6       0.297800
     30 H8           3.6890     0.0100     2.3430 h4         1 7X6      -0.023900
     31 H9           5.0960     0.0670     0.3110 ha         1 7X6       0.135000
     32 H4           3.6490     0.1470    -3.0800 hn         1 7X6       0.330800
     33 H131         6.8080    -3.9770    -1.5060 h2         1 7X6       0.013700
     34 H132         6.9000    -3.0100     0.0010 h2         1 7X6       0.013700
     35 H15          9.4970    -0.1060    -2.2790 ha         1 7X6       0.128000
     36 H16          8.2930     1.9920    -2.8980 ha         1 7X6       0.116000
     37 H1C1        -0.6140     3.2530    -4.8360 h1         1 7X6       0.070033
     38 H1C2         0.6220     2.8500    -3.6360 h1         1 7X6       0.070033
     39 H1C3         1.0970     3.5140    -5.2050 h1         1 7X6       0.070033
     40 H1          -1.6130     0.1670    -5.5370 hn         1 7X6       0.352800
     41 H3          -3.3690     0.3080    -4.0040 ha         1 7X6       0.112000
     42 H18          0.6760     0.0540    -2.6580 ha         1 7X6       0.187000
     43 HA          -4.1600     0.0220    -1.6920 ha         1 7X6       0.100000
     44 H5          -2.5400    -0.1100     0.1550 ha         1 7X6       0.114000
     45 N1          -0.9680     0.4950    -4.8450 nu         1 7X6      -0.380500
@<TRIPOS>BOND
     1     1     2 1   
     2     1    27 1   
     3     1    29 1   
     4     2     3 ar  
     5     2    18 ar  
     6     3     4 ar  
     7     4     5 ar  
     8     4    30 1   
     9     5     6 ar  
    10     5    31 1   
    11     6     7 1   
    12     6    18 ar  
    13     7     8 1   
    14     7    32 1   
    15     8     9 ar  
    16     8    16 ar  
    17     9    10 1   
    18     9    13 ar  
    19    10    11 1   
    20    11    12 1   
    21    11    33 1   
    22    11    34 1   
    23    12    13 1   
    24    13    14 ar  
    25    14    15 ar  
    26    14    35 1   
    27    15    16 ar  
    28    15    36 1   
    29    16    17 1   
    30    19    20 1   
    31    19    37 1   
    32    19    38 1   
    33    19    39 1   
    34    20    21 2   
    35    20    22 2   
    36    20    45 1   
    37    23    24 ar  
    38    23    28 ar  
    39    23    45 1   
    40    24    25 ar  
    41    24    41 1   
    42    25    26 ar  
    43    25    43 1   
    44    26    27 ar  
    45    26    44 1   
    46    27    28 ar  
    47    28    42 1   
    48    40    45 1   
@<TRIPOS>SUBSTRUCTURE
     1 7X6         1 TEMP              0 ****  ****    0 ROOT
