@<TRIPOS>MOLECULE
molecule
   45    48     1     0     0
SMALL
bcc


@<TRIPOS>ATOM
      1 N2           0.0000     0.0000     0.0000 nu         1 7X6      -0.750300
      2 C7           1.3900     0.0000     0.0000 ca         1 7X6       0.932900
      3 N3           1.8830     0.0000     1.2520 nb         1 7X6      -0.800000
      4 C8           3.2270     0.0180     1.3640 ca         1 7X6       0.501200
      5 C9           4.0150     0.0530     0.2290 ca         1 7X6      -0.466600
      6 C10          3.4040     0.0740    -1.0140 ca         1 7X6       0.765200
      7 N4           4.1420     0.1090    -2.2100 nu         1 7X6      -0.779300
      8 C11          5.5590     0.0910    -2.2270 ca         1 7X6       0.171600
      9 C12          6.2650    -1.0500    -1.8890 ca         1 7X6       0.034100
     10 O3           5.6820    -2.2400    -1.4850 os         1 7X6      -0.289900
     11 C13          6.8690    -2.9820    -1.0820 c3         1 7X6       0.297200
     12 O4           8.0890    -2.3640    -1.5530 os         1 7X6      -0.301900
     13 C14          7.6330    -1.1240    -1.9230 ca         1 7X6       0.058100
     14 C15          8.4150    -0.0520    -2.2720 ca         1 7X6      -0.106000
     15 C16          7.7250     1.1170    -2.6050 ca         1 7X6      -0.116000
     16 C17          6.3220     1.1920    -2.5980 ca         1 7X6       0.022400
     17 Cl1          5.4860     2.6780    -3.0420 cl         1 7X6      -0.090400
     18 N5           2.0880     0.0340    -1.1350 nb         1 7X6      -0.806000
     19 C1           0.3900     2.8720    -4.6940 c3         1 7X6      -0.241300
     20 S1           0.4980     1.2270    -5.3570 s6         1 7X6       1.229900
     21 O1           1.7360     0.6860    -4.8110 o          1 7X6      -0.600800
     22 O2           0.3400     1.3430    -6.8040 o          1 7X6      -0.600800
     23 C2          -1.3010     0.3370    -3.4560 ca         1 7X6       0.182600
     24 C3          -2.6540     0.2440    -3.1920 ca         1 7X6      -0.202000
     25 C4          -3.0980     0.0910    -1.8960 ca         1 7X6      -0.069000
     26 C5          -2.1940     0.0100    -0.8640 ca         1 7X6      -0.212000
     27 C6          -0.8280     0.0950    -1.1340 ca         1 7X6       0.217600
     28 C18         -0.3640     0.2500    -2.4280 ca         1 7X6      -0.221000
     29 H2          -0.4540    -0.0750     0.8890 hn         1 7X6       0.467800
     30 H8           3.6890     0.0100     2.3430 h4         1 7X6       0.028100
     31 H9           5.0960     0.0670     0.3110 ha         1 7X6       0.150000
     32 H4           3.6490     0.1470    -3.0800 hn         1 7X6       0.490800
     33 H131         6.8080    -3.9770    -1.5060 h2         1 7X6       0.071200
     34 H132         6.9000    -3.0100     0.0010 h2         1 7X6       0.071200
     35 H15          9.4970    -0.1060    -2.2790 ha         1 7X6       0.165000
     36 H16          8.2930     1.9920    -2.8980 ha         1 7X6       0.153000
     37 H1C1        -0.6140     3.2530    -4.8360 h1         1 7X6       0.105700
     38 H1C2         0.6220     2.8500    -3.6360 h1         1 7X6       0.105700
     39 H1C3         1.0970     3.5140    -5.2050 h1         1 7X6       0.105700
     40 H1          -1.6130     0.1670    -5.5370 hn         1 7X6       0.467800
     41 H3          -3.3690     0.3080    -4.0040 ha         1 7X6       0.134000
     42 H18          0.6760     0.0540    -2.6580 ha         1 7X6       0.201000
     43 HA          -4.1600     0.0220    -1.6920 ha         1 7X6       0.134000
     44 H5          -2.5400    -0.1100     0.1550 ha         1 7X6       0.135000
     45 N1          -0.9680     0.4950    -4.8450 nu         1 7X6      -0.744500
@<TRIPOS>BOND
     1     1     2 1
     2     1    27 1
     3     2     3 ar
     4     2    18 ar
     5     3     4 ar
     6     4     5 ar
     7     5     6 ar
     8     6     7 1
     9     6    18 ar
    10     7     8 1
    11     8     9 ar
    12     8    16 ar
    13     9    10 1
    14     9    13 ar
    15    10    11 1
    16    11    12 1
    17    12    13 1
    18    13    14 ar
    19    14    15 ar
    20    15    16 ar
    21    16    17 1
    22    19    20 1
    23    20    21 2
    24    20    22 2
    25    20    45 1
    26    45    23 1
    27    23    24 ar
    28    23    28 ar
    29    24    25 ar
    30    25    26 ar
    31    26    27 ar
    32    27    28 ar
    33     1    29 1
    34     4    30 1
    35     5    31 1
    36     7    32 1
    37    11    33 1
    38    11    34 1
    39    14    35 1
    40    15    36 1
    41    19    37 1
    42    19    38 1
    43    19    39 1
    44    45    40 1
    45    24    41 1
    46    28    42 1
    47    25    43 1
    48    26    44 1
@<TRIPOS>SUBSTRUCTURE
     1 7X6         1 TEMP              0 ****  ****    0 ROOT
