@<TRIPOS>MOLECULE
7X7
   50    54     1     0     0
SMALL
bcc


@<TRIPOS>ATOM
      1 Cl1          0.0000     0.0000     0.0000 cl         1 7X7      -0.000400
      2 C1           1.7340     0.0000     0.0000 ca         1 7X7      -0.047600
      3 C2           2.4370     0.0000     1.2060 ca         1 7X7      -0.088000
      4 C3           3.8320     0.0070     1.2140 ca         1 7X7      -0.074000
      5 C4           4.4650    -0.0070    -0.0120 ca         1 7X7       0.068100
      6 O1           5.8120    -0.0180    -0.2560 os         1 7X7      -0.292900
      7 C5           5.8590    -0.1250    -1.6890 c3         1 7X7       0.403200
      8 O2           4.5650    -0.0310    -2.2980 os         1 7X7      -0.279900
      9 C6           3.7660     0.0020    -1.1860 ca         1 7X7       0.048100
     10 C7           2.3920     0.0140    -1.2200 ca         1 7X7       0.003600
     11 N1           1.7280     0.0180    -2.4530 nu         1 7X7      -0.332300
     12 C8           1.7170    -1.0870    -3.3230 ca         1 7X7       0.571200
     13 C9           2.4010    -2.2470    -2.9620 ca         1 7X7      -0.449600
     14 C10          2.3510    -3.2720    -3.8500 ca         1 7X7       0.516200
     15 N2           1.6710    -3.1860    -4.9930 nb         1 7X7      -0.730000
     16 C11          1.0480    -2.0390    -5.2670 ca         1 7X7       0.737900
     17 N3           0.3500    -2.0460    -6.5020 nu         1 7X7      -0.298300
     18 C12         -0.2060    -0.9340    -7.1480 ca         1 7X7       0.055600
     19 C13         -0.1450     0.3350    -6.6260 ca         1 7X7      -0.190000
     20 C14         -0.6950     1.4020    -7.3170 ca         1 7X7      -0.038000
     21 C15         -1.3120     1.1910    -8.5250 ca         1 7X7      -0.188000
     22 C16         -1.3870    -0.0770    -9.0570 ca         1 7X7       0.066600
     23 C17         -0.8240    -1.1230    -8.3630 ca         1 7X7      -0.218000
     24 N4          -2.0250    -0.2550   -10.3060 nh         1 7X7      -0.365000
     25 C18         -2.2750    -1.6110   -10.7260 c3         1 7X7       0.102800
     26 C19         -2.7840    -1.5770   -12.1720 c3         1 7X7       0.200400
     27 O3          -3.9300    -0.7280   -12.2910 os         1 7X7      -0.398600
     28 C20         -3.5470     0.6090   -11.9500 c3         1 7X7       0.200400
     29 C21         -3.1920     0.6190   -10.4620 c3         1 7X7       0.102800
     30 N5           1.0480    -0.9550    -4.4730 nb         1 7X7      -0.717000
     31 H2           1.8940    -0.0050     2.1430 ha         1 7X7       0.122000
     32 H3           4.3930     0.0070     2.1410 ha         1 7X7       0.126000
     33 H5C1         6.4690     0.6860    -2.0670 h2         1 7X7       0.014200
     34 H5C2         6.2800    -1.0910    -1.9410 h2         1 7X7       0.014200
     35 H1           1.2370     0.8460    -2.7280 hn         1 7X7       0.298800
     36 H9           2.9550    -2.3200    -2.0340 ha         1 7X7       0.142000
     37 H10          2.8650    -4.1960    -3.6140 h4         1 7X7      -0.027900
     38 HA           0.2440    -2.9320    -6.9560 hn         1 7X7       0.289800
     39 H13          0.3410     0.5040    -5.6720 ha         1 7X7       0.155000
     40 H17         -0.8800    -2.1230    -8.7780 ha         1 7X7       0.115000
     41 H14         -0.6420     2.4020    -6.9030 ha         1 7X7       0.098000
     42 H15         -1.7460     2.0260    -9.0610 ha         1 7X7       0.116000
     43 H181        -1.3560    -2.1830   -10.6760 h1         1 7X7       0.027700
     44 H182        -3.0260    -2.0580   -10.0850 h1         1 7X7       0.027700
     45 H211        -2.9440     1.6260   -10.1480 h1         1 7X7       0.027700
     46 H212        -4.0220     0.2360    -9.8810 h1         1 7X7       0.027700
     47 H191        -3.0530    -2.5820   -12.4760 h1         1 7X7       0.014700
     48 H192        -1.9970    -1.2040   -12.8160 h1         1 7X7       0.014700
     49 H201        -4.3730     1.2850   -12.1350 h1         1 7X7       0.014700
     50 H202        -2.6850     0.9040   -12.5360 h1         1 7X7       0.014700
@<TRIPOS>BOND
     1     1     2 1   
     2     2     3 ar  
     3     2    10 ar  
     4     3     4 ar  
     5     3    31 1   
     6     4     5 ar  
     7     4    32 1   
     8     5     6 1   
     9     5     9 ar  
    10     6     7 1   
    11     7     8 1   
    12     7    33 1   
    13     7    34 1   
    14     8     9 1   
    15     9    10 ar  
    16    10    11 1   
    17    11    12 1   
    18    11    35 1   
    19    12    13 ar  
    20    12    30 ar  
    21    13    14 ar  
    22    13    36 1   
    23    14    15 ar  
    24    14    37 1   
    25    15    16 ar  
    26    16    17 1   
    27    16    30 ar  
    28    17    18 1   
    29    17    38 1   
    30    18    19 ar  
    31    18    23 ar  
    32    19    20 ar  
    33    19    39 1   
    34    20    21 ar  
    35    20    41 1   
    36    21    22 ar  
    37    21    42 1   
    38    22    23 ar  
    39    22    24 1   
    40    23    40 1   
    41    24    25 1   
    42    24    29 1   
    43    25    26 1   
    44    25    43 1   
    45    25    44 1   
    46    26    27 1   
    47    26    47 1   
    48    26    48 1   
    49    27    28 1   
    50    28    29 1   
    51    28    49 1   
    52    28    50 1   
    53    29    45 1   
    54    29    46 1   
@<TRIPOS>SUBSTRUCTURE
     1 7X7         1 TEMP              0 ****  ****    0 ROOT
