@<TRIPOS>MOLECULE
molecule
   42    45     1     0     0
SMALL
bcc


@<TRIPOS>ATOM
      1 N2           0.0000     0.0000     0.0000 nu         1 7X8      -0.753300
      2 C7           1.4150     0.0000     0.0000 ca         1 7X8       0.931900
      3 N3           1.9090     0.0000     1.2450 nb         1 7X8      -0.780000
      4 C8           3.2450     0.0280     1.3710 ca         1 7X8       0.505200
      5 C9           4.0850     0.0560     0.2830 ca         1 7X8      -0.431600
      6 C10          3.4760     0.0590    -0.9690 ca         1 7X8       0.762200
      7 N4           4.2420     0.0900    -2.1410 nu         1 7X8      -0.771300
      8 C11          5.6410     0.0420    -2.1460 ca         1 7X8       0.146600
      9 C12          6.3150    -1.1090    -1.7780 ca         1 7X8       0.033100
     10 O2           5.7220    -2.2790    -1.3410 os         1 7X8      -0.287900
     11 C13          6.8880    -2.9350    -0.8250 c3         1 7X8       0.292200
     12 O3           8.1190    -2.4150    -1.3850 os         1 7X8      -0.288900
     13 C14          7.6800    -1.1830    -1.8050 ca         1 7X8       0.064100
     14 C15          8.4630    -0.1200    -2.1850 ca         1 7X8      -0.093000
     15 C16          7.7920     1.0450    -2.5360 ca         1 7X8      -0.107000
     16 C17          6.4100     1.1300    -2.5310 ca         1 7X8       0.017400
     17 Cl1          5.5700     2.5820    -3.0030 cl         1 7X8      -0.093400
     18 N5           2.1530     0.0290    -1.1140 nb         1 7X8      -0.837000
     19 N1          -1.3630     1.2820    -5.6280 nz         1 7X8      -0.683400
     20 O1           0.2850    -0.2780    -5.1900 o          1 7X8      -0.386100
     21 C2          -1.2210     0.2020    -3.4790 ca         1 7X8      -0.196600
     22 C3          -2.5770     0.0370    -3.2950 ca         1 7X8      -0.158000
     23 C4          -3.0710    -0.1380    -2.0210 ca         1 7X8      -0.075000
     24 C5          -2.1980    -0.1480    -0.9570 ca         1 7X8      -0.131000
     25 C6          -0.8330     0.0240    -1.1430 ca         1 7X8       0.205600
     26 C18         -0.3320     0.1910    -2.4120 ca         1 7X8      -0.088000
     27 H2          -0.4540    -0.0180     0.8920 hn         1 7X8       0.479800
     28 H8           3.6760     0.0270     2.3650 h4         1 7X8       0.039100
     29 H9           5.1630     0.0790     0.3940 ha         1 7X8       0.168000
     30 H4           3.7650     0.1510    -3.0190 hn         1 7X8       0.457800
     31 H131         6.9140    -2.7830     0.2470 h2         1 7X8       0.076700
     32 H132         6.8220    -3.9870    -1.0760 h2         1 7X8       0.076700
     33 H15          9.5440    -0.1800    -2.1910 ha         1 7X8       0.174000
     34 H16          8.3690     1.9090    -2.8410 ha         1 7X8       0.161000
     35 H1N1        -0.7580     1.6020    -6.3580 hn         1 7X8       0.474800
     36 H1N2        -1.6580     2.0620    -5.0740 hn         1 7X8       0.474800
     37 H3          -3.2490     0.0480    -4.1450 ha         1 7X8       0.117000
     38 H18          0.6860     0.5360    -2.5510 ha         1 7X8       0.195000
     39 HA          -4.1340    -0.2720    -1.8590 ha         1 7X8       0.163000
     40 H5          -2.5850    -0.2860     0.0460 ha         1 7X8       0.160000
     41 H13         -2.1640     0.8370    -6.0300 hn         1 7X8       0.474800
     42 C1          -0.6920     0.3740    -4.8390 c          1 7X8       0.512700
@<TRIPOS>BOND
     1     1     2 1   
     2     1    25 1   
     3     2     3 ar  
     4     2    18 ar  
     5     3     4 ar  
     6     4     5 ar  
     7     5     6 ar  
     8     6     7 1   
     9     6    18 ar  
    10     7     8 1   
    11     8     9 ar  
    12     8    16 ar  
    13     9    10 1   
    14     9    13 ar  
    15    10    11 1   
    16    11    12 1   
    17    12    13 1   
    18    13    14 ar  
    19    14    15 ar  
    20    15    16 ar  
    21    16    17 1   
    22    19    42 1   
    23    42    20 2   
    24    42    21 1   
    25    21    22 ar  
    26    21    26 ar  
    27    22    23 ar  
    28    23    24 ar  
    29    24    25 ar  
    30    25    26 ar  
    31     1    27 1   
    32     4    28 1   
    33     5    29 1   
    34     7    30 1   
    35    11    31 1   
    36    11    32 1   
    37    14    33 1   
    38    15    34 1   
    39    19    35 1   
    40    19    36 1   
    41    22    37 1   
    42    26    38 1   
    43    23    39 1   
    44    24    40 1   
    45    41    19 1   
@<TRIPOS>SUBSTRUCTURE
     1 7X8         1 TEMP              0 ****  ****    0 ROOT
