@<TRIPOS>MOLECULE
molecule
   28    27     1     0     0
SMALL
bcc


@<TRIPOS>ATOM
      1 O10          0.0000     0.0000     0.0000 oh         1 7XA      -0.355100
      2 N9           1.4160     0.0000     0.0000 ns         1 7XA      -0.469400
      3 C8           2.0900     0.0000     1.1680 c          1 7XA       0.670100
      4 O11          1.4840     0.0010     2.2180 o          1 7XA      -0.572100
      5 C7           3.5970     0.0000     1.1670 c3         1 7XA      -0.150400
      6 C6           4.1080     0.0010     2.6090 c3         1 7XA      -0.063400
      7 C5           5.6370     0.0010     2.6090 c3         1 7XA      -0.083400
      8 C4           6.1480     0.0010     4.0500 c3         1 7XA      -0.073400
      9 C3           7.6780     0.0010     4.0510 c3         1 7XA      -0.112400
     10 C2           8.1890     0.0020     5.4930 c3         1 7XA       0.089800
     11 N1           9.6580     0.0020     5.4930 nz         1 7XA      -0.810600
     12 H1          -0.3140    -0.0000    -0.8890 ho         1 7XA       0.405000
     13 HN9          1.9160    -0.0000    -0.8670 hn         1 7XA       0.320500
     14 H71          3.9580     0.8850     0.6550 hc         1 7XA       0.061700
     15 H72          3.9580    -0.8840     0.6560 hc         1 7XA       0.061700
     16 H62          3.7460     0.8860     3.1190 hc         1 7XA       0.067700
     17 H61          3.7470    -0.8830     3.1200 hc         1 7XA       0.067700
     18 H52          5.9980     0.8860     2.0980 hc         1 7XA       0.046700
     19 H51          5.9980    -0.8830     2.0980 hc         1 7XA       0.046700
     20 H41          5.7870     0.8850     4.5610 hc         1 7XA       0.061700
     21 H42          5.7870    -0.8840     4.5610 hc         1 7XA       0.061700
     22 H32          8.0390     0.8850     3.5400 hc         1 7XA       0.064700
     23 H31          8.0400    -0.8840     3.5400 hc         1 7XA       0.064700
     24 H21          7.8270     0.8860     6.0040 hx         1 7XA       0.113700
     25 H22          7.8280    -0.8830     6.0040 hx         1 7XA       0.113700
     26 HN11         9.9910    -0.8150     5.0210 hn         1 7XA       0.456800
     27 HN13         9.9920     0.0030     6.4360 hn         1 7XA       0.456800
     28 H13          9.9910     0.8190     5.0200 hn         1 7XA       0.456800
@<TRIPOS>BOND
     1     1     2 1   
     2     4     3 2   
     3     2     3 1   
     4     3     5 1   
     5     6     5 1   
     6     6     7 1   
     7     8     7 1   
     8     8     9 1   
     9    10     9 1   
    10    10    11 1   
    11     1    12 1   
    12     2    13 1   
    13     5    14 1   
    14     5    15 1   
    15     6    16 1   
    16     6    17 1   
    17     7    18 1   
    18     7    19 1   
    19     8    20 1   
    20     8    21 1   
    21     9    22 1   
    22     9    23 1   
    23    10    24 1   
    24    10    25 1   
    25    11    26 1   
    26    11    27 1   
    27    28    11 1   
@<TRIPOS>SUBSTRUCTURE
     1 7XA         1 TEMP              0 ****  ****    0 ROOT
