@<TRIPOS>MOLECULE
7XA
   28    27     1     0     0
SMALL
bcc


@<TRIPOS>ATOM
      1 O10          0.0000     0.0000     0.0000 oh         1 7XA      -0.432100
      2 N9           1.4160     0.0000     0.0000 ns         1 7XA      -0.049400
      3 C8           2.0900     0.0000     1.1680 c          1 7XA       0.567100
      4 O11          1.4840     0.0010     2.2180 o          1 7XA      -0.617100
      5 C7           3.5970     0.0000     1.1670 c3         1 7XA      -0.092400
      6 C6           4.1080     0.0010     2.6090 c3         1 7XA      -0.011400
      7 C5           5.6370     0.0010     2.6090 c3         1 7XA      -0.028400
      8 C4           6.1480     0.0010     4.0500 c3         1 7XA      -0.015400
      9 C3           7.6780     0.0010     4.0510 c3         1 7XA      -0.036400
     10 C2           8.1890     0.0020     5.4930 c3         1 7XA      -0.054200
     11 N1           9.6580     0.0020     5.4930 nz         1 7XA       0.086400
     12 H1          -0.3140    -0.0000    -0.8890 ho         1 7XA       0.398000
     13 HN9          1.9160    -0.0000    -0.8670 hn         1 7XA       0.154500
     14 H71          3.9580     0.8850     0.6550 hc         1 7XA       0.026700
     15 H72          3.9580    -0.8840     0.6560 hc         1 7XA       0.026700
     16 H62          3.7460     0.8860     3.1190 hc         1 7XA       0.036700
     17 H61          3.7470    -0.8830     3.1200 hc         1 7XA       0.036700
     18 H52          5.9980     0.8860     2.0980 hc         1 7XA       0.016700
     19 H51          5.9980    -0.8830     2.0980 hc         1 7XA       0.016700
     20 H41          5.7870     0.8850     4.5610 hc         1 7XA       0.030700
     21 H42          5.7870    -0.8840     4.5610 hc         1 7XA       0.030700
     22 H32          8.0390     0.8850     3.5400 hc         1 7XA       0.032700
     23 H31          8.0400    -0.8840     3.5400 hc         1 7XA       0.032700
     24 H21          7.8270     0.8860     6.0040 hx         1 7XA       0.086700
     25 H22          7.8280    -0.8830     6.0040 hx         1 7XA       0.086700
     26 HN11         9.9910    -0.8150     5.0210 hn         1 7XA       0.223467
     27 HN13         9.9920     0.0030     6.4360 hn         1 7XA       0.223467
     28 H13          9.9910     0.8190     5.0200 hn         1 7XA       0.223467
@<TRIPOS>BOND
     1     1     2 1   
     2     1    12 1   
     3     2     3 1   
     4     2    13 1   
     5     3     4 2   
     6     3     5 1   
     7     5     6 1   
     8     5    14 1   
     9     5    15 1   
    10     6     7 1   
    11     6    16 1   
    12     6    17 1   
    13     7     8 1   
    14     7    18 1   
    15     7    19 1   
    16     8     9 1   
    17     8    20 1   
    18     8    21 1   
    19     9    10 1   
    20     9    22 1   
    21     9    23 1   
    22    10    11 1   
    23    10    24 1   
    24    10    25 1   
    25    11    26 1   
    26    11    27 1   
    27    11    28 1   
@<TRIPOS>SUBSTRUCTURE
     1 7XA         1 TEMP              0 ****  ****    0 ROOT
