@<TRIPOS>MOLECULE
molecule
   55    59     1     0     0
SMALL
bcc


@<TRIPOS>ATOM
      1 C4           0.0000     0.0000     0.0000 ca         1 7XD      -0.059800
      2 C5           1.3980     0.0000     0.0000 ca         1 7XD       0.138100
      3 C6           2.0880     0.0000     1.2130 cp         1 7XD      -0.065000
      4 C7          -1.4000     0.4300    -3.4030 ca         1 7XD      -0.234100
      5 C8           7.2910     2.0920     5.1050 c          1 7XD       0.781100
      6 C10          3.5720     0.0000     1.2250 cp         1 7XD      -0.053000
      7 C17          5.6450     0.9240     2.0070 ca         1 7XD      -0.125300
      8 C20         -0.6930     0.0000     1.2120 ca         1 7XD      -0.108000
      9 C21          1.3810     0.0010     2.4130 ca         1 7XD      -0.099000
     10 C22          4.2780    -0.9240     0.4570 ca         1 7XD      -0.089000
     11 C24          5.6580    -0.9190     0.4710 ca         1 7XD      -0.135000
     12 C28          8.2140     3.6780     7.3000 ca         1 7XD      -0.145500
     13 C1          -0.7420     0.0050    -1.2780 cc         1 7XD       0.002700
     14 N2          -1.8870    -0.7160    -1.5350 na         1 7XD      -0.172400
     15 C3          -0.3980     0.7190    -2.3800 cd         1 7XD      -0.153200
     16 C9          -2.3090    -0.4790    -2.8190 ca         1 7XD      -0.009200
     17 N11          7.5080     1.5800     6.3320 ns         1 7XD      -0.492100
     18 C12         -1.6030     0.8400    -4.7200 ca         1 7XD       0.471200
     19 N13          6.6320     1.3690     4.1790 ns         1 7XD      -0.600900
     20 C14          4.2650     0.9280     2.0000 ca         1 7XD      -0.102000
     21 O15          7.6900     3.2090     4.8330 o          1 7XD      -0.648100
     22 O16          2.0800    -0.0020    -1.1740 oh         1 7XD      -0.510100
     23 C18          6.3970     1.9260     2.8450 c3         1 7XD       0.180300
     24 C19          8.2750     2.2900     7.2620 ca         1 7XD       0.070600
     25 C23         -0.0010    -0.0040     2.4070 ca         1 7XD      -0.135000
     26 C25         -3.3760    -0.9270    -3.5920 ca         1 7XD      -0.271300
     27 N26         -2.6340     0.3870    -5.4030 nb         1 7XD      -0.712000
     28 C27          6.3410     0.0010     1.2470 ca         1 7XD      -0.106000
     29 C29          9.0990     1.6100     8.1500 ca         1 7XD      -0.145500
     30 C30         -3.5000    -0.4700    -4.8850 ca         1 7XD       0.430200
     31 C31          8.9720     4.3760     8.2180 ca         1 7XD      -0.113000
     32 C32          9.8560     2.3150     9.0660 ca         1 7XD      -0.113000
     33 C33          9.7920     3.6960     9.1000 ca         1 7XD      -0.146000
     34 H1          -1.7760    -0.0020     1.2150 ha         1 7XD       0.135000
     35 H2           1.9160    -0.0010     3.3550 ha         1 7XD       0.140000
     36 H3           3.7440    -1.6450    -0.1510 ha         1 7XD       0.151000
     37 H4           6.2070    -1.6380    -0.1240 ha         1 7XD       0.137000
     38 H6          -2.3430    -1.3230    -0.8830 hn         1 7XD       0.299700
     39 H7           0.3490     1.5030    -2.4230 ha         1 7XD       0.153000
     40 H8           7.1050     0.6990     6.5840 hn         1 7XD       0.316500
     41 H9          -0.9170     1.5410    -5.1800 h4         1 7XD       0.024100
     42 H10          6.3050     0.4500     4.4020 hn         1 7XD       0.311500
     43 H11          3.7230     1.6990     2.5350 ha         1 7XD       0.139000
     44 H12          2.3340     0.8790    -1.3920 ho         1 7XD       0.426000
     45 H13          7.3460     2.1500     2.3750 h1         1 7XD       0.060200
     46 H14          5.8130     2.8340     2.9310 h1         1 7XD       0.060200
     47 H15         -0.5440    -0.0030     3.3440 ha         1 7XD       0.137000
     48 H16         -4.0950    -1.6280    -3.1850 ha         1 7XD       0.132000
     49 H17          7.4240     0.0010     1.2550 ha         1 7XD       0.137000
     50 H18          9.1490     0.5290     8.1230 ha         1 7XD       0.147000
     51 H19         -4.3310    -0.8120    -5.4900 h4         1 7XD       0.022100
     52 H20          8.9250     5.4580     8.2480 ha         1 7XD       0.131000
     53 H21         10.4980     1.7850     9.7590 ha         1 7XD       0.131000
     54 H22         10.3860     4.2460     9.8200 ha         1 7XD       0.128000
     55 H5           7.5720     4.2110     6.6090 ha         1 7XD       0.147000
@<TRIPOS>BOND
     1    23    19 1   
     2    23     7 1   
     3    28     7 ar  
     4    28    11 ar  
     5    19     5 1   
     6    12    31 ar  
     7    12    24 ar  
     8     7    20 ar  
     9     5    17 1   
    10     5    21 2   
    11    17    24 1   
    12    11    10 ar  
    13    31    33 ar  
    14    24    29 ar  
    15    20     6 ar  
    16    33    32 ar  
    17    10     6 ar  
    18    29    32 ar  
    19     6     3 1   
    20     3     9 ar  
    21     3     2 ar  
    22    22     2 1   
    23     9    25 ar  
    24     2     1 ar  
    25    25     8 ar  
    26     1     8 ar  
    27     1    13 1   
    28    14    13 1   
    29    14    16 1   
    30    13    15 2   
    31    16    26 ar  
    32    16     4 ar  
    33    26    30 ar  
    34    15     4 1   
    35     4    18 ar  
    36    30    27 ar  
    37    18    27 ar  
    38     8    34 1   
    39     9    35 1   
    40    10    36 1   
    41    11    37 1   
    42    12    55 1   
    43    14    38 1   
    44    15    39 1   
    45    17    40 1   
    46    18    41 1   
    47    19    42 1   
    48    20    43 1   
    49    22    44 1   
    50    23    45 1   
    51    23    46 1   
    52    25    47 1   
    53    26    48 1   
    54    28    49 1   
    55    29    50 1   
    56    30    51 1   
    57    31    52 1   
    58    32    53 1   
    59    33    54 1   
@<TRIPOS>SUBSTRUCTURE
     1 7XD         1 TEMP              0 ****  ****    0 ROOT
