@<TRIPOS>MOLECULE
7XF
   39    39     1     0     0
SMALL
bcc


@<TRIPOS>ATOM
      1 OAF          0.0000     0.0000     0.0000 o          1 7XF      -0.753833
      2 PAW          1.4800     0.0000     0.0000 p5         1 7XF       0.665900
      3 OAG          2.0180     0.0000     1.5180 o          1 7XF      -0.753833
      4 OAC          2.0160    -1.3160    -0.7590 o          1 7XF      -0.753833
      5 OAP          2.0170     1.3140    -0.7600 os         1 7XF      -0.489200
      6 CAM          1.6280     1.6560    -2.0920 c3         1 7XF       0.293700
      7 CAS          2.3080     2.9380    -2.5000 ca         1 7XF      -0.101600
      8 CAI          3.1580     3.5880    -1.6240 ca         1 7XF       0.388200
      9 NAN          3.7570     4.7100    -1.9700 nb         1 7XF      -0.614000
     10 CAR          3.5740     5.2580    -3.1560 ca         1 7XF       0.249600
     11 CAA          4.2790     6.5450    -3.4990 c3         1 7XF      -0.014400
     12 CAT          2.7370     4.6640    -4.0890 ca         1 7XF      -0.027200
     13 OAE          2.5530     5.2310    -5.3090 oh         1 7XF      -0.507100
     14 CAU          2.0930     3.4760    -3.7580 ca         1 7XF      -0.115300
     15 CAL          1.1740     2.7960    -4.7410 c3         1 7XF       0.200100
     16 N            1.9470     1.8550    -5.5630 n7         1 7XF      -0.528200
     17 CA           1.0820     1.1720    -6.5350 c3         1 7XF       0.010500
     18 C            0.4410    -0.0250    -5.8830 c          1 7XF       0.951600
     19 O            0.6780    -0.2830    -4.7260 o          1 7XF      -0.857300
     20 OXT         -0.3960    -0.8040    -6.5860 o          1 7XF      -0.857300
     21 CB           1.9210     0.7140    -7.7290 c3         1 7XF      -0.002400
     22 CAJ          2.4720     1.9370    -8.4650 c3         1 7XF       0.111700
     23 SAH          3.4670     1.3930    -9.8820 sh         1 7XF      -0.455900
     24 H3           1.9190     0.8610    -2.7680 h1         1 7XF       0.035700
     25 H4           0.5540     1.7880    -2.1320 h1         1 7XF       0.035700
     26 H5           3.3310     3.1710    -0.6390 h4         1 7XF       0.035100
     27 H6           3.5480     7.3340    -3.6290 hc         1 7XF      -0.013967
     28 H7           4.8390     6.4170    -4.4180 hc         1 7XF      -0.013967
     29 H8           4.9580     6.8100    -2.6970 hc         1 7XF      -0.013967
     30 H9           1.9020     5.9110    -5.2450 ho         1 7XF       0.372000
     31 H10          0.4040     2.2570    -4.2030 h1         1 7XF       0.016200
     32 H11          0.7150     3.5400    -5.3800 h1         1 7XF       0.016200
     33 H12          2.6690     2.3500    -6.0480 hn         1 7XF       0.215800
     34 H14          0.3120     1.8540    -6.8750 h1         1 7XF      -0.012300
     35 H16          1.3030     0.1350    -8.4040 hc         1 7XF       0.043200
     36 H17          2.7440     0.1020    -7.3790 hc         1 7XF       0.043200
     37 H18          3.0910     2.5160    -7.7910 h1         1 7XF       0.030700
     38 H19          1.6490     2.5480    -8.8150 h1         1 7XF       0.030700
     39 H20          3.4890     2.3500   -10.8010 hs         1 7XF       0.138800
@<TRIPOS>BOND
     1     1     2 1   
     2     2     3 1   
     3     2     4 1   
     4     2     5 1   
     5     5     6 1   
     6     6     7 1   
     7     6    24 1   
     8     6    25 1   
     9     7     8 ar  
    10     7    14 ar  
    11     8     9 ar  
    12     8    26 1   
    13     9    10 ar  
    14    10    11 1   
    15    10    12 ar  
    16    11    27 1   
    17    11    28 1   
    18    11    29 1   
    19    12    13 1   
    20    12    14 ar  
    21    13    30 1   
    22    14    15 1   
    23    15    16 1   
    24    15    31 1   
    25    15    32 1   
    26    16    17 1   
    27    16    33 1   
    28    17    18 1   
    29    17    21 1   
    30    17    34 1   
    31    18    19 1   
    32    18    20 1   
    33    21    22 1   
    34    21    35 1   
    35    21    36 1   
    36    22    23 1   
    37    22    37 1   
    38    22    38 1   
    39    23    39 1   
@<TRIPOS>SUBSTRUCTURE
     1 7XF         1 TEMP              0 ****  ****    0 ROOT
