@<TRIPOS>MOLECULE
7XG
   63    67     1     0     0
SMALL
bcc


@<TRIPOS>ATOM
      1 C1           0.0000     0.0000     0.0000 ca         1 7XG      -0.067000
      2 C2           1.4360     6.2700     3.8930 ca         1 7XG      -0.098500
      3 C3           0.0100     6.4320     5.8290 ca         1 7XG      -0.098500
      4 C4           1.7430     4.9680     4.2340 ca         1 7XG      -0.070500
      5 C5           0.3280     5.1310     6.1640 ca         1 7XG      -0.070500
      6 C6           1.3820     0.0000     0.0000 ca         1 7XG      -0.116000
      7 C7          -0.6910     0.0060     1.1970 ca         1 7XG      -0.141000
      8 C8           0.7270     9.1240     3.2190 c2         1 7XG      -0.015000
      9 C9          -0.5900     9.2490     5.0220 c2         1 7XG      -0.227000
     10 C10          0.5680     7.0110     4.6920 ca         1 7XG      -0.021000
     11 C11          0.2400     8.4140     4.3330 c2         1 7XG      -0.125000
     12 C12          1.1910     4.3990     5.3670 ca         1 7XG      -0.069000
     13 C13          2.0750     0.0000     1.1970 ca         1 7XG      -0.034000
     14 C14          1.3870    -0.0010     2.3940 ca         1 7XG      -0.120000
     15 C15          0.0020     0.0110     2.3960 ca         1 7XG       0.071000
     16 C16         -0.4670    12.7930     4.8740 c2         1 7XG      -0.021000
     17 C17          1.1430     2.0200     4.5990 c3         1 7XG      -0.110000
     18 C18          3.3320     1.4280     5.2690 c3         1 7XG      -0.065000
     19 C19          1.5330     2.9800     5.7380 DU         1 7XG       0.071000
     20 C20          3.0630     2.8200     5.8940 c3         1 7XG      -0.447000
     21 C21          3.5820     0.0000     1.1930 c3         1 7XG      -0.093000
     22 C22          4.8820     2.5670     7.4720 c3         1 7XG      -0.106500
     23 C23          3.0780     4.1110     7.9420 c3         1 7XG      -0.106500
     24 C24          2.1430    -0.0020     3.6980 c3         1 7XG      -0.042000
     25 N26          0.2110    10.3240     3.2450 n2         1 7XG      -0.215000
     26 N27         -0.6230    10.4250     4.3650 na         1 7XG       0.220000
     27 N28          2.3890     1.3830     4.1230 n3         1 7XG      -0.048000
     28 N29         -0.9570    13.9980     5.2270 nz         1 7XG       0.817000
     29 N30          3.4470     2.8370     7.3110 n3         1 7XG      -0.039000
     30 O31          0.7180    12.6610     4.6490 o          1 7XG      -0.104000
     31 F32         -0.6720     0.0170     3.5670 f          1 7XG      -0.099000
     32 H1          -0.5420    -0.0020    -0.9380 ha         1 7XG       0.107000
     33 H2           1.8710     6.7150     3.0060 ha         1 7XG       0.101500
     34 H3          -0.6660     7.0030     6.4540 ha         1 7XG       0.101500
     35 H4           2.4180     4.3910     3.6140 ha         1 7XG       0.124500
     36 H5          -0.1040     4.6790     7.0500 ha         1 7XG       0.124500
     37 H6           1.9230    -0.0020    -0.9390 ha         1 7XG       0.113000
     38 H7          -1.7740     0.0110     1.1980 ha         1 7XG       0.119000
     39 H8           1.4120     8.7430     2.4710 h4         1 7XG       0.162000
     40 H9          -1.1280     9.0090     5.9310 h4         1 7XG       0.157000
     41 H10          0.6810     2.5760     3.7920 h1         1 7XG       0.078000
     42 H11          0.4620     1.2650     4.9720 h1         1 7XG       0.078000
     43 H12          4.3560     1.3580     4.9230 h1         1 7XG       0.057500
     44 H13          3.1070     0.6420     5.9800 h1         1 7XG       0.057500
     45 H14          1.0330     2.6940     6.6560 ha         1 7XG       0.044000
     46 H15          2.2410     2.5840     6.5580 DU         1 7XG       0.256000
     47 H16          3.6810     0.7930     1.9250 hc         1 7XG       0.065000
     48 H17          3.9890    -0.9370     1.5530 hc         1 7XG       0.065000
     49 H18          3.9860     0.2850     0.2290 hc         1 7XG       0.065000
     50 H19          5.2050     2.9040     8.4500 h1         1 7XG       0.050167
     51 H20          5.0610     1.5020     7.3800 h1         1 7XG       0.050167
     52 H21          5.4370     3.0940     6.7060 h1         1 7XG       0.050167
     53 H22          3.7060     4.2800     8.8080 h1         1 7XG       0.050167
     54 H23          3.2160     4.9180     7.2330 h1         1 7XG       0.050167
     55 H24          2.0400     4.0740     8.2500 h1         1 7XG       0.050167
     56 H25          3.0890    -0.5130     3.5670 h1         1 7XG       0.065000
     57 H26          1.5590    -0.5130     4.4540 h1         1 7XG       0.065000
     58 H27         -2.1480    11.8130     4.0100 h1         1 7XG       0.100000
     59 H28         -1.8690    11.4280     5.7140 h1         1 7XG       0.100000
     60 H30         -1.3180    13.9510     6.1590 hn         1 7XG       0.042000
     61 H31         -1.6900    14.2570     4.5980 hn         1 7XG       0.042000
     62 C25         -1.3920    11.6080     4.7580 c3         1 7XG      -0.043000
     63 H293        -0.2250    14.6800     5.1860 hn         1 7XG       0.042000
@<TRIPOS>BOND
     1     1     6 1   
     2     1     7 1   
     3     1    32 1   
     4     2     4 1   
     5     2    10 1   
     6     2    33 1   
     7     3     5 1   
     8     3    10 1   
     9     3    34 1   
    10     4    12 1   
    11     4    35 1   
    12     5    12 1   
    13     5    36 1   
    14     6    13 1   
    15     6    37 1   
    16     7    15 1   
    17     7    38 1   
    18     8    11 1   
    19     8    25 1   
    20     8    39 1   
    21     9    11 1   
    22     9    26 1   
    23     9    40 1   
    24    10    11 1   
    25    12    19 1   
    26    13    14 1   
    27    13    21 1   
    28    14    15 1   
    29    14    24 1   
    30    15    31 1   
    31    16    28 1   
    32    16    30 1   
    33    16    62 1   
    34    17    19 1   
    35    17    27 1   
    36    17    41 1   
    37    17    42 1   
    38    18    20 1   
    39    18    27 1   
    40    18    43 1   
    41    18    44 1   
    42    19    20 1   
    43    19    45 1   
    44    19    46 1   
    45    20    29 1   
    46    20    46 1   
    47    21    47 1   
    48    21    48 1   
    49    21    49 1   
    50    22    29 1   
    51    22    50 1   
    52    22    51 1   
    53    22    52 1   
    54    23    29 1   
    55    23    53 1   
    56    23    54 1   
    57    23    55 1   
    58    24    27 1   
    59    24    56 1   
    60    24    57 1   
    61    25    26 1   
    62    26    62 1   
    63    28    60 1   
    64    28    61 1   
    65    28    63 1   
    66    58    62 1   
    67    59    62 1   
@<TRIPOS>SUBSTRUCTURE
     1 7XG         1 TEMP              0 ****  ****    0 ROOT
