@<TRIPOS>MOLECULE
molecule
   38    40     1     0     0
SMALL
bcc


@<TRIPOS>ATOM
      1 C4           0.0000     0.0000     0.0000 ca         1 7XJ       0.010000
      2 C7           0.0140    -0.0080     2.4360 ca         1 7XJ      -0.072000
      3 C10          1.4000     0.0000     0.0000 ca         1 7XJ      -0.132000
      4 C13          1.3750    -0.0020     2.4140 ca         1 7XJ      -0.170000
      5 C15         -2.1060    -0.0020    -1.1190 ca         1 7XJ       0.426200
      6 C17         -0.7480    -0.0010    -1.1950 ca         1 7XJ      -0.248300
      7 C20          9.6960    -2.2940    -0.2700 ca         1 7XJ      -0.131000
      8 C21          9.4950    -0.5230    -1.8690 ca         1 7XJ      -0.131000
      9 C22         10.2820    -1.4030    -1.1490 ca         1 7XJ      -0.115000
     10 C1           4.1560    -0.6390     0.2460 c          1 7XJ       0.782100
     11 C2          -0.7010    -0.0070     1.2320 ca         1 7XJ      -0.189300
     12 C3          -2.1140    -0.0140     1.2030 ca         1 7XJ       0.703200
     13 N6          -2.7450    -0.0130     0.0440 nb         1 7XJ      -0.725000
     14 N8           5.4990    -0.5440     0.1910 ns         1 7XJ      -0.583900
     15 C9           2.0750     0.0000     1.2030 ca         1 7XJ       0.087600
     16 O11          3.5600    -1.3060    -0.5780 o          1 7XJ      -0.640100
     17 C14          6.2410    -1.2450    -0.8590 c3         1 7XJ       0.148300
     18 C16          7.5360    -1.4260    -0.8300 ca         1 7XJ      -0.104300
     19 C18          8.1220    -0.5380    -1.7120 ca         1 7XJ      -0.115000
     20 C19          8.3230    -2.3080    -0.1120 ca         1 7XJ      -0.115000
     21 H1          -0.5140    -0.0090     3.3820 ha         1 7XJ       0.142000
     22 H2           1.9480     0.0020    -0.9350 ha         1 7XJ       0.170000
     23 H3          -3.1170     0.8430     2.8040 hn         1 7XJ       0.436300
     24 H4          -3.1080    -0.8900     2.7990 hn         1 7XJ       0.436300
     25 H5           1.9250    -0.0020     3.3480 ha         1 7XJ       0.127000
     26 H6          -2.6830    -0.0020    -2.0350 h4         1 7XJ       0.017100
     27 H7          -0.2510     0.0090    -2.1570 ha         1 7XJ       0.143000
     28 H9           9.9540     0.1740    -2.5600 ha         1 7XJ       0.132500
     29 H10         11.3580    -1.3920    -1.2720 ha         1 7XJ       0.132000
     30 H12          5.9900     0.0060     0.8680 hn         1 7XJ       0.306500
     31 H13          5.9140    -0.8920    -1.8290 h1         1 7XJ       0.060700
     32 H14          6.0560    -2.3100    -0.7820 h1         1 7XJ       0.060700
     33 H15          7.5050     0.1510    -2.2760 ha         1 7XJ       0.137000
     34 H16          7.8640    -3.0060     0.5770 ha         1 7XJ       0.137000
     35 N12         -2.8330    -0.0210     2.3850 nv         1 7XJ      -1.082500
     36 N5           3.4730     0.0060     1.2130 ns         1 7XJ      -0.491100
     37 H8          10.3120    -2.9840     0.2940 ha         1 7XJ       0.132500
     38 H11          3.9630     0.3940     1.9940 hn         1 7XJ       0.317500
@<TRIPOS>BOND
     1     8     9 ar  
     2     8    19 ar  
     3     9     7 ar  
     4    19    18 ar  
     5     7    20 ar  
     6    18    20 ar  
     7    18    17 1   
     8    17    14 1   
     9    14    10 1   
    10    10    36 1   
    11    10    16 2   
    12    36    15 1   
    13     4    15 ar  
    14     4     2 ar  
    15    15     3 ar  
    16     2    11 ar  
    17     3     1 ar  
    18    11     1 ar  
    19    11    12 ar  
    20     1     6 ar  
    21    35    12 1   
    22    12    13 ar  
    23     6     5 ar  
    24    13     5 ar  
    25     2    21 1   
    26     3    22 1   
    27    35    23 1   
    28    35    24 1   
    29     4    25 1   
    30     5    26 1   
    31     6    27 1   
    32     7    37 1   
    33     8    28 1   
    34     9    29 1   
    35    36    38 1   
    36    14    30 1   
    37    17    31 1   
    38    17    32 1   
    39    19    33 1   
    40    20    34 1   
@<TRIPOS>SUBSTRUCTURE
     1 7XJ         1 TEMP              0 ****  ****    0 ROOT
