@<TRIPOS>MOLECULE
molecule
   45    46     1     0     0
SMALL
bcc


@<TRIPOS>ATOM
      1 O1           0.0000     0.0000     0.0000 o          1 7XL      -0.513500
      2 C1           1.2200     0.0000     0.0000 c          1 7XL       0.820900
      3 N1           1.8750     0.0000     1.1590 nc         1 7XL      -0.652100
      4 C2           3.2020    -0.0010     1.1880 cd         1 7XL       0.503500
      5 N2           3.8680    -0.0020     2.3910 nz         1 7XL      -0.724600
      6 C3           3.9240    -0.0020    -0.0240 cd         1 7XL      -0.437600
      7 C4           3.2440    -0.0020    -1.1940 cc         1 7XL       0.114600
      8 N3           1.8810    -0.0060    -1.1730 n          1 7XL      -0.313000
      9 C5           1.1320    -0.0060    -2.4320 c3         1 7XL       0.274500
     10 O2           0.1560     1.0590    -2.4360 os         1 7XL      -0.354600
     11 C6           0.3060    -1.3030    -2.5660 c3         1 7XL       0.079100
     12 O3           0.9880    -2.2480    -3.3920 oh         1 7XL      -0.583800
     13 C7          -1.0080    -0.8440    -3.2400 c3         1 7XL       0.106100
     14 O4          -1.1750    -1.4910    -4.5020 oh         1 7XL      -0.576800
     15 C8          -0.8170     0.6800    -3.4340 c3         1 7XL       0.123100
     16 C9          -2.1370     1.4160    -3.1990 c3         1 7XL       0.239400
     17 O5          -1.9680     2.8040    -3.4950 os         1 7XL      -0.600200
     18 P1          -3.1570     3.8810    -3.3580 p5         1 7XL       1.433800
     19 O6          -4.3150     3.5410    -4.4240 o          1 7XL      -0.801500
     20 O7          -3.7160     3.8260    -1.9890 o          1 7XL      -0.801500
     21 O8          -2.5800     5.3560    -3.6440 os         1 7XL      -0.723800
     22 P2          -3.0870     6.8420    -3.2910 p5         1 7XL       1.276600
     23 O9          -4.5320     7.0890    -3.9570 o          1 7XL      -0.794000
     24 O10         -3.1880     6.9940    -1.8230 o          1 7XL      -0.794000
     25 C10         -1.8990     8.0610    -3.9480 c3         1 7XL      -0.272600
     26 C11         -2.3140     9.4660    -3.5060 c3         1 7XL       0.166400
     27 O11         -1.3830    10.4200    -4.0200 oh         1 7XL      -0.640800
     28 H1           3.2050    -0.0050     3.1400 hn         1 7XL       0.459800
     29 H2           4.4410     0.8160     2.4560 hn         1 7XL       0.459800
     30 H3           5.0080    -0.0010    -0.0180 ha         1 7XL       0.149000
     31 H4           3.7770    -0.0040    -2.1370 h4         1 7XL       0.189000
     32 H5           1.8030     0.0990    -3.2760 h2         1 7XL       0.089700
     33 H6           0.1010    -1.7230    -1.5880 h1         1 7XL       0.056700
     34 H7           1.0040    -3.0870    -2.9620 ho         1 7XL       0.397000
     35 H8          -1.8530    -1.0390    -2.5910 h1         1 7XL       0.069700
     36 H9          -1.9420    -2.0400    -4.4750 ho         1 7XL       0.404000
     37 H10         -0.4350     0.8860    -4.4270 h1         1 7XL       0.083700
     38 H11         -2.9020     1.0000    -3.8430 h1         1 7XL       0.048700
     39 H12         -2.4350     1.3010    -2.1640 h1         1 7XL       0.048700
     40 H15         -1.8910     8.0100    -5.0300 hc         1 7XL       0.047200
     41 H16         -0.9090     7.8400    -3.5680 hc         1 7XL       0.047200
     42 H17         -2.3220     9.5170    -2.4230 h1         1 7XL       0.033200
     43 H18         -3.3040     9.6870    -3.8850 h1         1 7XL       0.033200
     44 H19         -1.6640    11.2900    -3.7870 ho         1 7XL       0.370000
     45 H23          4.4450    -0.8180     2.4520 hn         1 7XL       0.459800
@<TRIPOS>BOND
     1    26    25 1
     2    26    27 1
     3    25    22 1
     4    23    22 1
     5    22    21 1
     6    22    24 1
     7    21    18 1
     8    19    18 1
     9    18    20 1
    10    18    17 1
    11    16    17 1
    12    16    15 1
    13    15    13 1
    14    15    10 1
    15    13    14 1
    16    13    11 1
    17    10     9 1
    18    11    12 1
    19    11     9 1
    20     9     8 1
    21     7     8 1
    22     7     6 2
    23     8     2 1
    24     6     4 1
    25     2     1 2
    26     2     3 1
    27     4     3 2
    28     4     5 1
    29     5    28 1
    30     5    29 1
    31     6    30 1
    32     7    31 1
    33     9    32 1
    34    11    33 1
    35    12    34 1
    36    13    35 1
    37    14    36 1
    38    15    37 1
    39    16    38 1
    40    16    39 1
    41    25    40 1
    42    25    41 1
    43    26    42 1
    44    26    43 1
    45    27    44 1
    46    45     5 1
@<TRIPOS>SUBSTRUCTURE
     1 7XL         1 TEMP              0 ****  ****    0 ROOT
