@<TRIPOS>MOLECULE
molecule
   21    22     1     0     0
SMALL
bcc


@<TRIPOS>ATOM
      1 C5           0.0000     0.0000     0.0000 ca         1 7XM      -0.047000
      2 C6           1.3900    -0.0020    -2.4360 ca         1 7XM      -0.236000
      3 C8           0.0090    -0.0130    -2.4020 ca         1 7XM       0.222600
      4 C10          4.1400    -0.0000     0.0080 ca         1 7XM       0.436200
      5 C1           1.4010     0.0000     0.0000 ca         1 7XM      -0.218300
      6 C2           2.1470     0.0000     1.2000 ca         1 7XM       0.714200
      7 C3           2.1040    -0.0010    -1.2320 ca         1 7XM       0.042000
      8 N4           3.4660     0.0010     1.1520 nb         1 7XM      -0.737000
      9 N7           1.4970     0.0010     2.4220 nv         1 7XM      -1.084500
     10 C9          -0.6750    -0.0070    -1.1820 ca         1 7XM      -0.199000
     11 N11         -0.7100    -0.0130    -3.5980 nv         1 7XM      -0.916200
     12 C12          3.5130     0.0000    -1.1980 ca         1 7XM      -0.269300
     13 H1          -0.5440     0.0050     0.9370 ha         1 7XM       0.141000
     14 H2           1.9140    -0.0070    -3.3830 ha         1 7XM       0.135000
     15 H3           5.2230     0.0010     0.0370 h4         1 7XM       0.015100
     16 H4           1.2810    -0.8650     2.8750 hn         1 7XM       0.435800
     17 H5           1.2820     0.8680     2.8740 hn         1 7XM       0.435800
     18 H6          -1.7590    -0.0160    -1.1780 ha         1 7XM       0.128000
     19 H7          -1.7100    -0.0170    -3.5800 hn         1 7XM       0.430800
     20 H8          -0.2250    -0.0130    -4.4730 hn         1 7XM       0.430800
     21 H9           4.0860    -0.0010    -2.1170 ha         1 7XM       0.137000
@<TRIPOS>BOND
     1    11     3 1
     2    10     3 ar
     3    10     1 ar
     4     3     2 ar
     5     1     5 ar
     6     2     7 ar
     7     5     7 ar
     8     5     6 ar
     9     7    12 ar
    10     9     6 1
    11     6     8 ar
    12    12     4 ar
    13     8     4 ar
    14     1    13 1
    15     2    14 1
    16     4    15 1
    17     9    16 1
    18     9    17 1
    19    10    18 1
    20    11    19 1
    21    11    20 1
    22    12    21 1
@<TRIPOS>SUBSTRUCTURE
     1 7XM         1 TEMP              0 ****  ****    0 ROOT
