@<TRIPOS>MOLECULE
7XO
   63    67     1     0     0
SMALL
bcc


@<TRIPOS>ATOM
      1 C4           0.0000     0.0000     0.0000 ca         1 7XO       0.274800
      2 C5           1.4090     0.0000     0.0000 ca         1 7XO      -0.194200
      3 C6           2.0720     0.0000     1.2270 ca         1 7XO       0.527200
      4 C8           0.7590    -0.0010    -2.0780 cc         1 7XO       0.326700
      5 N1           1.3530     0.0010     2.3370 nb         1 7XO      -0.681000
      6 N3          -0.6450     0.0020     1.1570 nb         1 7XO      -0.680000
      7 CAP          3.4440    -0.1080     8.1890 c3         1 7XO       0.091300
      8 CAN          4.1670    -0.3290     9.5200 c3         1 7XO       0.155800
      9 NBE          3.5230     0.4800    10.5650 n3         1 7XO      -0.542600
     10 CAC          3.6700     1.9140    10.2840 c3         1 7XO       0.167100
     11 CAO          2.1080     0.1140    10.7130 c3         1 7XO       0.155800
     12 CAQ          1.3850     0.3360     9.3820 c3         1 7XO       0.091300
     13 NBF          2.0280    -0.4730     8.3370 nh         1 7XO      -0.354000
     14 CAY          1.3480    -0.3530     7.1200 ca         1 7XO       0.002600
     15 CAL          1.7990    -1.0420     6.0020 ca         1 7XO      -0.128000
     16 CAJ          1.1280    -0.9240     4.8000 ca         1 7XO      -0.093500
     17 CAK          0.2200     0.4510     7.0310 ca         1 7XO      -0.128000
     18 CAI         -0.4540     0.5660     5.8310 ca         1 7XO      -0.093500
     19 CAX          0.0040    -0.1150     4.7100 ca         1 7XO      -0.018400
     20 C2           0.0270     0.0020     2.2990 ca         1 7XO       0.697900
     21 N7           1.8100    -0.0010    -1.2970 nd         1 7XO      -0.557100
     22 N9          -0.3810     0.0040    -1.3220 na         1 7XO       0.172000
     23 CBD         -1.7570     0.0060    -1.8260 c3         1 7XO      -0.063000
     24 CAB         -1.9840     1.2520    -2.6840 c3         1 7XO      -0.021600
     25 CAA         -1.9910    -1.2460    -2.6750 c3         1 7XO      -0.021600
     26 NAV          0.7950    -0.0030    -3.4580 nu         1 7XO      -0.267600
     27 CAW          2.0230     0.0230    -4.1260 ca         1 7XO       0.007600
     28 CAG          2.1490    -0.5670    -5.3760 ca         1 7XO      -0.134000
     29 CAE          3.3640    -0.5390    -6.0330 ca         1 7XO      -0.077000
     30 CAD          4.4540     0.0750    -5.4460 ca         1 7XO      -0.125000
     31 CAF          4.3330     0.6630    -4.2000 ca         1 7XO      -0.077000
     32 CAH          3.1200     0.6440    -3.5410 ca         1 7XO      -0.134000
     33 H1           3.1540    -0.0000     1.2700 h4         1 7XO      -0.010900
     34 H2          -1.6790     0.0530     3.4830 hn         1 7XO       0.290800
     35 H3           3.5190     0.9350     7.9070 h1         1 7XO       0.026950
     36 H4           3.8980    -0.7280     7.4250 h1         1 7XO       0.026950
     37 H5           4.1110    -1.3770     9.7900 h1         1 7XO       0.029450
     38 H6           5.2030    -0.0310     9.4210 h1         1 7XO       0.029450
     39 H8           4.7220     2.1660    10.2300 h1         1 7XO       0.005367
     40 H9           3.2020     2.4870    11.0760 h1         1 7XO       0.005367
     41 H10          3.1930     2.1480     9.3390 h1         1 7XO       0.005367
     42 H11          1.6540     0.7340    11.4770 h1         1 7XO       0.029450
     43 H12          2.0320    -0.9290    10.9950 h1         1 7XO       0.029450
     44 H13          0.3480     0.0370     9.4810 h1         1 7XO       0.026950
     45 H14          1.4400     1.3830     9.1110 h1         1 7XO       0.026950
     46 H15          2.6760    -1.6730     6.0720 ha         1 7XO       0.117000
     47 H16          1.4800    -1.4620     3.9280 ha         1 7XO       0.117500
     48 H17         -0.1370     0.9820     7.9050 ha         1 7XO       0.117000
     49 H18         -1.3340     1.1940     5.7610 ha         1 7XO       0.117500
     50 H19         -2.4480     0.0110    -0.9920 h1         1 7XO       0.067700
     51 H20         -1.2870     2.0260    -2.3890 hc         1 7XO       0.018200
     52 H21         -2.9980     1.6070    -2.5440 hc         1 7XO       0.018200
     53 H22         -1.8290     1.0060    -3.7280 hc         1 7XO       0.018200
     54 H23         -2.9930    -1.6190    -2.5000 hc         1 7XO       0.018200
     55 H24         -1.2700    -2.0070    -2.4020 hc         1 7XO       0.018200
     56 H25         -1.8750    -0.9990    -3.7230 hc         1 7XO       0.018200
     57 H26         -0.0580    -0.0120    -3.9810 hn         1 7XO       0.291800
     58 H27          1.2950    -1.0480    -5.8370 ha         1 7XO       0.126000
     59 H28          3.4620    -0.9990    -7.0090 ha         1 7XO       0.101500
     60 H29          5.4070     0.0930    -5.9620 ha         1 7XO       0.102000
     61 H30          5.1890     1.1450    -3.7430 ha         1 7XO       0.101500
     62 H31          3.0260     1.1050    -2.5650 ha         1 7XO       0.126000
     63 N2          -0.6790     0.0030     3.4930 nu         1 7XO      -0.294300
@<TRIPOS>BOND
     1     1     2 ar  
     2     1     6 ar  
     3     1    22 1   
     4     2     3 ar  
     5     2    21 1   
     6     3     5 ar  
     7     3    33 1   
     8     4    21 2   
     9     4    22 1   
    10     4    26 1   
    11     5    20 ar  
    12     6    20 ar  
    13     7     8 1   
    14     7    13 1   
    15     7    35 1   
    16     7    36 1   
    17     8     9 1   
    18     8    37 1   
    19     8    38 1   
    20     9    10 1   
    21     9    11 1   
    22    10    39 1   
    23    10    40 1   
    24    10    41 1   
    25    11    12 1   
    26    11    42 1   
    27    11    43 1   
    28    12    13 1   
    29    12    44 1   
    30    12    45 1   
    31    13    14 1   
    32    14    15 ar  
    33    14    17 ar  
    34    15    16 ar  
    35    15    46 1   
    36    16    19 ar  
    37    16    47 1   
    38    17    18 ar  
    39    17    48 1   
    40    18    19 ar  
    41    18    49 1   
    42    19    63 1   
    43    20    63 1   
    44    22    23 1   
    45    23    24 1   
    46    23    25 1   
    47    23    50 1   
    48    24    51 1   
    49    24    52 1   
    50    24    53 1   
    51    25    54 1   
    52    25    55 1   
    53    25    56 1   
    54    26    27 1   
    55    26    57 1   
    56    27    28 ar  
    57    27    32 ar  
    58    28    29 ar  
    59    28    58 1   
    60    29    30 ar  
    61    29    59 1   
    62    30    31 ar  
    63    30    60 1   
    64    31    32 ar  
    65    31    61 1   
    66    32    62 1   
    67    34    63 1   
@<TRIPOS>SUBSTRUCTURE
     1 7XO         1 TEMP              0 ****  ****    0 ROOT
