@<TRIPOS>MOLECULE
molecule
   63    67     1     0     0
SMALL
bcc


@<TRIPOS>ATOM
      1 C4           0.0000     0.0000     0.0000 ca         1 7XO       0.485800
      2 C5           1.4090     0.0000     0.0000 ca         1 7XO      -0.169200
      3 C6           2.0720     0.0000     1.2270 ca         1 7XO       0.533200
      4 C8           0.7590    -0.0010    -2.0780 cc         1 7XO       0.664700
      5 N1           1.3530     0.0010     2.3370 nb         1 7XO      -0.781000
      6 N3          -0.6450     0.0020     1.1570 nb         1 7XO      -0.809000
      7 CAP          3.4440    -0.1080     8.1890 c3         1 7XO       0.120800
      8 CAN          4.1670    -0.3290     9.5200 c3         1 7XO       0.160300
      9 NBE          3.5230     0.4800    10.5650 n3         1 7XO      -0.721600
     10 CAC          3.6700     1.9140    10.2840 c3         1 7XO       0.141100
     11 CAO          2.1080     0.1140    10.7130 c3         1 7XO       0.160300
     12 CAQ          1.3850     0.3360     9.3820 c3         1 7XO       0.120800
     13 NBF          2.0280    -0.4730     8.3370 nh         1 7XO      -0.590000
     14 CAY          1.3480    -0.3530     7.1200 ca         1 7XO       0.083600
     15 CAL          1.7990    -1.0420     6.0020 ca         1 7XO      -0.149000
     16 CAJ          1.1280    -0.9240     4.8000 ca         1 7XO      -0.121500
     17 CAK          0.2200     0.4510     7.0310 ca         1 7XO      -0.149000
     18 CAI         -0.4540     0.5660     5.8310 ca         1 7XO      -0.121500
     19 CAX          0.0040    -0.1150     4.7100 ca         1 7XO       0.139600
     20 C2           0.0270     0.0020     2.2990 ca         1 7XO       0.942900
     21 N7           1.8100    -0.0010    -1.2970 nd         1 7XO      -0.638100
     22 N9          -0.3810     0.0040    -1.3220 na         1 7XO      -0.278000
     23 CBD         -1.7570     0.0060    -1.8260 c3         1 7XO       0.049000
     24 CAB         -1.9840     1.2520    -2.6840 c3         1 7XO      -0.114600
     25 CAA         -1.9910    -1.2460    -2.6750 c3         1 7XO      -0.114600
     26 NAV          0.7950    -0.0030    -3.4580 nu         1 7XO      -0.725600
     27 CAW          2.0230     0.0230    -4.1260 ca         1 7XO       0.164600
     28 CAG          2.1490    -0.5670    -5.3760 ca         1 7XO      -0.153500
     29 CAE          3.3640    -0.5390    -6.0330 ca         1 7XO      -0.107500
     30 CAD          4.4540     0.0750    -5.4460 ca         1 7XO      -0.151000
     31 CAF          4.3330     0.6630    -4.2000 ca         1 7XO      -0.107500
     32 CAH          3.1200     0.6440    -3.5410 ca         1 7XO      -0.153500
     33 H1           3.1540    -0.0000     1.2700 h4         1 7XO       0.041100
     34 H2          -1.6790     0.0530     3.4830 hn         1 7XO       0.463800
     35 H3           3.5190     0.9350     7.9070 h1         1 7XO       0.046700
     36 H4           3.8980    -0.7280     7.4250 h1         1 7XO       0.046700
     37 H5           4.1110    -1.3770     9.7900 h1         1 7XO       0.063200
     38 H6           5.2030    -0.0310     9.4210 h1         1 7XO       0.063200
     39 H8           4.7220     2.1660    10.2300 h1         1 7XO       0.034033
     40 H9           3.2020     2.4870    11.0760 h1         1 7XO       0.034033
     41 H10          3.1930     2.1480     9.3390 h1         1 7XO       0.034033
     42 H11          1.6540     0.7340    11.4770 h1         1 7XO       0.063200
     43 H12          2.0320    -0.9290    10.9950 h1         1 7XO       0.063200
     44 H13          0.3480     0.0370     9.4810 h1         1 7XO       0.046700
     45 H14          1.4400     1.3830     9.1110 h1         1 7XO       0.046700
     46 H15          2.6760    -1.6730     6.0720 ha         1 7XO       0.137500
     47 H16          1.4800    -1.4620     3.9280 ha         1 7XO       0.143000
     48 H17         -0.1370     0.9820     7.9050 ha         1 7XO       0.137500
     49 H18         -1.3340     1.1940     5.7610 ha         1 7XO       0.143000
     50 H19         -2.4480     0.0110    -0.9920 h1         1 7XO       0.095700
     51 H20         -1.2870     2.0260    -2.3890 hc         1 7XO       0.049533
     52 H21         -2.9980     1.6070    -2.5440 hc         1 7XO       0.049533
     53 H22         -1.8290     1.0060    -3.7280 hc         1 7XO       0.049533
     54 H23         -2.9930    -1.6190    -2.5000 hc         1 7XO       0.049533
     55 H24         -1.2700    -2.0070    -2.4020 hc         1 7XO       0.049533
     56 H25         -1.8750    -0.9990    -3.7230 hc         1 7XO       0.049533
     57 H26         -0.0580    -0.0120    -3.9810 hn         1 7XO       0.456800
     58 H27          1.2950    -1.0480    -5.8370 ha         1 7XO       0.149000
     59 H28          3.4620    -0.9990    -7.0090 ha         1 7XO       0.131500
     60 H29          5.4070     0.0930    -5.9620 ha         1 7XO       0.129000
     61 H30          5.1890     1.1450    -3.7430 ha         1 7XO       0.131500
     62 H31          3.0260     1.1050    -2.5650 ha         1 7XO       0.149000
     63 N2          -0.6790     0.0030     3.4930 nu         1 7XO      -0.758300
@<TRIPOS>BOND
     1    30    31 ar  
     2    30    29 ar  
     3    31    32 ar  
     4    29    28 ar  
     5    32    27 ar  
     6    28    27 ar  
     7    27    26 1   
     8    26     4 1   
     9     4    21 2   
    10     4    22 1   
    11    21     2 1   
    12    22    23 1   
    13    22     1 1   
    14     2     3 ar  
    15     2     1 ar  
    16    23    25 1   
    17    23    24 1   
    18     3     5 ar  
    19     1     6 ar  
    20     5    20 ar  
    21     6    20 ar  
    22    20    63 1   
    23    63    19 1   
    24    18    19 ar  
    25    18    17 ar  
    26    19    16 ar  
    27    17    14 ar  
    28    16    15 ar  
    29    14    15 ar  
    30    14    13 1   
    31    12    13 1   
    32    12    11 1   
    33    13     7 1   
    34    11     9 1   
    35     7     8 1   
    36     9     8 1   
    37     9    10 1   
    38     3    33 1   
    39    63    34 1   
    40     7    35 1   
    41     7    36 1   
    42     8    37 1   
    43     8    38 1   
    44    10    39 1   
    45    10    40 1   
    46    10    41 1   
    47    11    42 1   
    48    11    43 1   
    49    12    44 1   
    50    12    45 1   
    51    15    46 1   
    52    16    47 1   
    53    17    48 1   
    54    18    49 1   
    55    23    50 1   
    56    24    51 1   
    57    24    52 1   
    58    24    53 1   
    59    25    54 1   
    60    25    55 1   
    61    25    56 1   
    62    26    57 1   
    63    28    58 1   
    64    29    59 1   
    65    30    60 1   
    66    31    61 1   
    67    32    62 1   
@<TRIPOS>SUBSTRUCTURE
     1 7XO         1 TEMP              0 ****  ****    0 ROOT
