@<TRIPOS>MOLECULE
molecule
   67    72     1     0     0
SMALL
bcc


@<TRIPOS>ATOM
      1 C4           0.0000     0.0000     0.0000 ca         1 7XR       0.484800
      2 C5           1.4090     0.0000     0.0000 ca         1 7XR      -0.170200
      3 C6           2.0720     0.0000     1.2280 ca         1 7XR       0.534200
      4 C8           0.7580    -0.0000    -2.0780 cc         1 7XR       0.660700
      5 N1           1.3530    -0.0010     2.3380 nb         1 7XR      -0.783000
      6 N3          -0.6450     0.0000     1.1580 nb         1 7XR      -0.809000
      7 CAR          1.0030     1.3870     9.3270 c3         1 7XR       0.174300
      8 CAP          1.7740     1.5030    10.6430 c3         1 7XR       0.157800
      9 NBG          1.9560     0.1630    11.2200 n3         1 7XR      -0.733600
     10 CAA          2.6280     0.2380    12.5250 c3         1 7XR       0.152100
     11 CAQ          2.6960    -0.7090    10.2960 c3         1 7XR       0.157800
     12 CAS          1.9240    -0.8240     8.9800 c3         1 7XR       0.174300
     13 NBH          1.7420     0.5150     8.4020 nh         1 7XR      -0.626000
     14 CBA          1.3640    -0.0540     7.1280 ca         1 7XR       0.106600
     15 CAJ          1.8580    -0.7660     6.0440 ca         1 7XR      -0.159000
     16 CAH          1.1820    -0.7470     4.8400 ca         1 7XR      -0.120500
     17 CAI          0.1870     0.6720     7.0050 ca         1 7XR      -0.159000
     18 CAG         -0.4910     0.6880     5.8020 ca         1 7XR      -0.120500
     19 CAZ          0.0080    -0.0160     4.7140 ca         1 7XR       0.133600
     20 C2           0.0270    -0.0010     2.2990 ca         1 7XR       0.943900
     21 N7           1.8090    -0.0010    -1.2970 nd         1 7XR      -0.634100
     22 N9          -0.3820     0.0040    -1.3210 na         1 7XR      -0.273000
     23 CBF         -1.7570     0.0060    -1.8260 c3         1 7XR       0.052000
     24 CAN         -1.9850    -1.2150    -2.7420 c3         1 7XR      -0.106900
     25 CAL         -2.9100    -0.6800    -3.8630 c3         1 7XR      -0.090400
     26 CAM         -2.3680     0.7520    -4.1010 c3         1 7XR      -0.090400
     27 CAO         -2.0010     1.2560    -2.6900 c3         1 7XR      -0.106900
     28 NAX          0.7940    -0.0060    -3.4590 nu         1 7XR      -0.731600
     29 CAY          2.0190     0.1000    -4.1250 ca         1 7XR       0.166600
     30 CAE          2.2010    -0.5340    -5.3490 ca         1 7XR      -0.152000
     31 CAC          3.4110    -0.4280    -6.0050 ca         1 7XR      -0.106500
     32 CAB          4.4400     0.3080    -5.4470 ca         1 7XR      -0.151000
     33 CAD          4.2620     0.9390    -4.2300 ca         1 7XR      -0.106500
     34 CAF          3.0530     0.8420    -3.5700 ca         1 7XR      -0.152000
     35 H1           3.1540     0.0000     1.2710 h4         1 7XR       0.042100
     36 H2          -1.6800    -0.0230     3.4830 hn         1 7XR       0.463800
     37 H4           0.8940     2.3700     8.8850 h1         1 7XR       0.049450
     38 H5           2.7440     1.9480    10.4540 h1         1 7XR       0.041950
     39 H6           1.2150     2.1200    11.3350 h1         1 7XR       0.041950
     40 H8           3.6140     0.6690    12.3990 h1         1 7XR       0.032367
     41 H9           2.7190    -0.7570    12.9420 h1         1 7XR       0.032367
     42 H10          2.0450     0.8590    13.1950 h1         1 7XR       0.032367
     43 H11          3.6740    -0.2840    10.1050 h1         1 7XR       0.041950
     44 H12          2.8040    -1.6930    10.7370 h1         1 7XR       0.041950
     45 H13          2.4830    -1.4420     8.2870 h1         1 7XR       0.049450
     46 H14          0.9550    -1.2690     9.1680 h1         1 7XR       0.049450
     47 H15          2.8990    -1.0660     6.0220 ha         1 7XR       0.143500
     48 H16          1.5680    -1.3020     3.9930 ha         1 7XR       0.145000
     49 H17         -0.1020     1.3710     7.7800 ha         1 7XR       0.143500
     50 H18         -1.4090     1.2540     5.7050 ha         1 7XR       0.145000
     51 H19         -2.4600    -0.0160    -1.0020 h1         1 7XR       0.096700
     52 H20         -2.4760    -2.0110    -2.1960 hc         1 7XR       0.062450
     53 H21         -1.0450    -1.5550    -3.1590 hc         1 7XR       0.062450
     54 H22         -2.8100    -1.2800    -4.7600 hc         1 7XR       0.051700
     55 H23         -3.9390    -0.6480    -3.5260 hc         1 7XR       0.051700
     56 H24         -1.4880     0.7220    -4.7320 hc         1 7XR       0.051700
     57 H25         -3.1350     1.3790    -4.5380 hc         1 7XR       0.051700
     58 H26         -2.8200     1.8350    -2.2800 hc         1 7XR       0.062450
     59 H27         -1.1000     1.8560    -2.7340 hc         1 7XR       0.062450
     60 H28         -0.0500    -0.1300    -3.9810 hn         1 7XR       0.462800
     61 H29          1.3950    -1.1100    -5.7860 ha         1 7XR       0.145000
     62 H30          3.5540    -0.9210    -6.9590 ha         1 7XR       0.131500
     63 H31          5.3890     0.3870    -5.9630 ha         1 7XR       0.129000
     64 H32          5.0700     1.5170    -3.7970 ha         1 7XR       0.131500
     65 H33          2.9140     1.3370    -2.6170 ha         1 7XR       0.145000
     66 N2          -0.6790     0.0000     3.4930 nu         1 7XR      -0.758300
     67 H3           0.0250     0.9620     9.5190 h1         1 7XR       0.049450
@<TRIPOS>BOND
     1    32    33 ar  
     2    32    31 ar  
     3    33    34 ar  
     4    31    30 ar  
     5    34    29 ar  
     6    30    29 ar  
     7    29    28 1   
     8    28     4 1   
     9    21     4 2   
    10    21     2 1   
    11     4    22 1   
    12     2     3 ar  
    13     2     1 ar  
    14    22    23 1   
    15    22     1 1   
    16     3     5 ar  
    17    23    27 1   
    18    23    24 1   
    19     1     6 ar  
    20    27    26 1   
    21    24    25 1   
    22     5    20 ar  
    23     6    20 ar  
    24    26    25 1   
    25    20    66 1   
    26    66    19 1   
    27    18    19 ar  
    28    18    17 ar  
    29    19    16 ar  
    30    17    14 ar  
    31    16    15 ar  
    32    14    15 ar  
    33    14    13 1   
    34     7    13 1   
    35     7     8 1   
    36    13    12 1   
    37     8     9 1   
    38    12    11 1   
    39     9    11 1   
    40     9    10 1   
    41     3    35 1   
    42    66    36 1   
    43     7    67 1   
    44     7    37 1   
    45     8    38 1   
    46     8    39 1   
    47    10    40 1   
    48    10    41 1   
    49    10    42 1   
    50    11    43 1   
    51    11    44 1   
    52    12    45 1   
    53    12    46 1   
    54    15    47 1   
    55    16    48 1   
    56    17    49 1   
    57    18    50 1   
    58    23    51 1   
    59    24    52 1   
    60    24    53 1   
    61    25    54 1   
    62    25    55 1   
    63    26    56 1   
    64    26    57 1   
    65    27    58 1   
    66    27    59 1   
    67    28    60 1   
    68    30    61 1   
    69    31    62 1   
    70    32    63 1   
    71    33    64 1   
    72    34    65 1   
@<TRIPOS>SUBSTRUCTURE
     1 7XR         1 TEMP              0 ****  ****    0 ROOT
