@<TRIPOS>MOLECULE
7XR
   67    72     1     0     0
SMALL
bcc


@<TRIPOS>ATOM
      1 C4           0.0000     0.0000     0.0000 ca         1 7XR       0.272800
      2 C5           1.4090     0.0000     0.0000 ca         1 7XR      -0.196200
      3 C6           2.0720     0.0000     1.2280 ca         1 7XR       0.529200
      4 C8           0.7580    -0.0000    -2.0780 cc         1 7XR       0.324700
      5 N1           1.3530    -0.0010     2.3380 nb         1 7XR      -0.682000
      6 N3          -0.6450     0.0000     1.1580 nb         1 7XR      -0.682000
      7 CAR          1.0030     1.3870     9.3270 c3         1 7XR       0.148300
      8 CAP          1.7740     1.5030    10.6430 c3         1 7XR       0.149800
      9 NBG          1.9560     0.1630    11.2200 n3         1 7XR      -0.549600
     10 CAA          2.6280     0.2380    12.5250 c3         1 7XR       0.189100
     11 CAQ          2.6960    -0.7090    10.2960 c3         1 7XR       0.149800
     12 CAS          1.9240    -0.8240     8.9800 c3         1 7XR       0.148300
     13 NBH          1.7420     0.5150     8.4020 nh         1 7XR      -0.400000
     14 CBA          1.3640    -0.0540     7.1280 ca         1 7XR       0.045600
     15 CAJ          1.8580    -0.7660     6.0440 ca         1 7XR      -0.151500
     16 CAH          1.1820    -0.7470     4.8400 ca         1 7XR      -0.090500
     17 CAI          0.1870     0.6720     7.0050 ca         1 7XR      -0.151500
     18 CAG         -0.4910     0.6880     5.8020 ca         1 7XR      -0.090500
     19 CAZ          0.0080    -0.0160     4.7140 ca         1 7XR      -0.026400
     20 C2           0.0270    -0.0010     2.2990 ca         1 7XR       0.698900
     21 N7           1.8090    -0.0010    -1.2970 nd         1 7XR      -0.553100
     22 N9          -0.3820     0.0040    -1.3210 na         1 7XR       0.179000
     23 CBF         -1.7570     0.0060    -1.8260 c3         1 7XR      -0.062000
     24 CAN         -1.9850    -1.2150    -2.7420 c3         1 7XR      -0.050900
     25 CAL         -2.9100    -0.6800    -3.8630 c3         1 7XR      -0.026900
     26 CAM         -2.3680     0.7520    -4.1010 c3         1 7XR      -0.026900
     27 CAO         -2.0010     1.2560    -2.6900 c3         1 7XR      -0.050900
     28 NAX          0.7940    -0.0060    -3.4590 nu         1 7XR      -0.286600
     29 CAY          2.0190     0.1000    -4.1250 ca         1 7XR       0.011600
     30 CAE          2.2010    -0.5340    -5.3490 ca         1 7XR      -0.130500
     31 CAC          3.4110    -0.4280    -6.0050 ca         1 7XR      -0.076500
     32 CAB          4.4400     0.3080    -5.4470 ca         1 7XR      -0.125000
     33 CAD          4.2620     0.9390    -4.2300 ca         1 7XR      -0.076500
     34 CAF          3.0530     0.8420    -3.5700 ca         1 7XR      -0.130500
     35 H1           3.1540     0.0000     1.2710 h4         1 7XR      -0.010900
     36 H2          -1.6800    -0.0230     3.4830 hn         1 7XR       0.290800
     37 H4           0.8940     2.3700     8.8850 h1         1 7XR       0.024450
     38 H5           2.7440     1.9480    10.4540 h1         1 7XR       0.014700
     39 H6           1.2150     2.1200    11.3350 h1         1 7XR       0.014700
     40 H8           3.6140     0.6690    12.3990 h1         1 7XR      -0.000300
     41 H9           2.7190    -0.7570    12.9420 h1         1 7XR      -0.000300
     42 H10          2.0450     0.8590    13.1950 h1         1 7XR      -0.000300
     43 H11          3.6740    -0.2840    10.1050 h1         1 7XR       0.014700
     44 H12          2.8040    -1.6930    10.7370 h1         1 7XR       0.014700
     45 H13          2.4830    -1.4420     8.2870 h1         1 7XR       0.024450
     46 H14          0.9550    -1.2690     9.1680 h1         1 7XR       0.024450
     47 H15          2.8990    -1.0660     6.0220 ha         1 7XR       0.126000
     48 H16          1.5680    -1.3020     3.9930 ha         1 7XR       0.119000
     49 H17         -0.1020     1.3710     7.7800 ha         1 7XR       0.126000
     50 H18         -1.4090     1.2540     5.7050 ha         1 7XR       0.119000
     51 H19         -2.4600    -0.0160    -1.0020 h1         1 7XR       0.068700
     52 H20         -2.4760    -2.0110    -2.1960 hc         1 7XR       0.031200
     53 H21         -1.0450    -1.5550    -3.1590 hc         1 7XR       0.031200
     54 H22         -2.8100    -1.2800    -4.7600 hc         1 7XR       0.022200
     55 H23         -3.9390    -0.6480    -3.5260 hc         1 7XR       0.022200
     56 H24         -1.4880     0.7220    -4.7320 hc         1 7XR       0.022200
     57 H25         -3.1350     1.3790    -4.5380 hc         1 7XR       0.022200
     58 H26         -2.8200     1.8350    -2.2800 hc         1 7XR       0.031200
     59 H27         -1.1000     1.8560    -2.7340 hc         1 7XR       0.031200
     60 H28         -0.0500    -0.1300    -3.9810 hn         1 7XR       0.304800
     61 H29          1.3950    -1.1100    -5.7860 ha         1 7XR       0.121500
     62 H30          3.5540    -0.9210    -6.9590 ha         1 7XR       0.101000
     63 H31          5.3890     0.3870    -5.9630 ha         1 7XR       0.102000
     64 H32          5.0700     1.5170    -3.7970 ha         1 7XR       0.101000
     65 H33          2.9140     1.3370    -2.6170 ha         1 7XR       0.121500
     66 N2          -0.6790     0.0000     3.4930 nu         1 7XR      -0.294300
     67 H3           0.0250     0.9620     9.5190 h1         1 7XR       0.024450
@<TRIPOS>BOND
     1     1     2 ar  
     2     1     6 ar  
     3     1    22 1   
     4     2     3 ar  
     5     2    21 1   
     6     3     5 ar  
     7     3    35 1   
     8     4    21 2   
     9     4    22 1   
    10     4    28 1   
    11     5    20 ar  
    12     6    20 ar  
    13     7     8 1   
    14     7    13 1   
    15     7    37 1   
    16     7    67 1   
    17     8     9 1   
    18     8    38 1   
    19     8    39 1   
    20     9    10 1   
    21     9    11 1   
    22    10    40 1   
    23    10    41 1   
    24    10    42 1   
    25    11    12 1   
    26    11    43 1   
    27    11    44 1   
    28    12    13 1   
    29    12    45 1   
    30    12    46 1   
    31    13    14 1   
    32    14    15 ar  
    33    14    17 ar  
    34    15    16 ar  
    35    15    47 1   
    36    16    19 ar  
    37    16    48 1   
    38    17    18 ar  
    39    17    49 1   
    40    18    19 ar  
    41    18    50 1   
    42    19    66 1   
    43    20    66 1   
    44    22    23 1   
    45    23    24 1   
    46    23    27 1   
    47    23    51 1   
    48    24    25 1   
    49    24    52 1   
    50    24    53 1   
    51    25    26 1   
    52    25    54 1   
    53    25    55 1   
    54    26    27 1   
    55    26    56 1   
    56    26    57 1   
    57    27    58 1   
    58    27    59 1   
    59    28    29 1   
    60    28    60 1   
    61    29    30 ar  
    62    29    34 ar  
    63    30    31 ar  
    64    30    61 1   
    65    31    32 ar  
    66    31    62 1   
    67    32    33 ar  
    68    32    63 1   
    69    33    34 ar  
    70    33    64 1   
    71    34    65 1   
    72    36    66 1   
@<TRIPOS>SUBSTRUCTURE
     1 7XR         1 TEMP              0 ****  ****    0 ROOT
