@<TRIPOS>MOLECULE
7XS
   52    55     1     0     0
SMALL
bcc


@<TRIPOS>ATOM
      1 N3           0.0000     0.0000     0.0000 nn         1 7XS      -0.508300
      2 C4          -2.9640    -1.0370     0.1120 c3         1 7XS      -0.032700
      3 N2           0.2990     1.7280    -1.5750 nb         1 7XS      -0.708000
      4 C7          -2.3010     1.7040    -2.3310 ca         1 7XS       0.310800
      5 C6          -1.8530     0.8120    -1.3370 ca         1 7XS      -0.488500
      6 C9          -0.4950     0.8520    -0.9680 ca         1 7XS       0.605200
      7 C13          2.7380     0.5490     3.4360 ca         1 7XS       0.106100
      8 C8          -0.1670     2.5440    -2.5030 ca         1 7XS       0.680900
      9 N5          -4.0060     0.4370    -1.6210 nc         1 7XS      -0.631100
     10 C18          3.7330     1.2760     4.0710 ca         1 7XS      -0.134000
     11 C16          3.4480    -0.0590     6.0410 ca         1 7XS       0.113100
     12 C19          4.8300     0.4330     7.9140 c3         1 7XS       0.244700
     13 C1          -1.4820    -2.4850    -1.2830 c3         1 7XS      -0.005100
     14 C2          -2.8310    -2.4010    -0.5670 c3         1 7XS      -0.045700
     15 C3          -2.9190    -3.5060     0.4870 c3         1 7XS      -0.005100
     16 C5          -2.9690     0.0470    -0.9350 cd         1 7XS       0.443900
     17 N1          -1.4260     2.5460    -2.8800 nb         1 7XS      -0.648000
     18 C10          1.4750     0.0000     0.0000 cy         1 7XS       0.114300
     19 C11          1.4190     0.0000     1.5340 cy         1 7XS       0.123100
     20 C12          0.0560     0.6700     1.3140 cy         1 7XS       0.114300
     21 O1           2.3920     0.8440     2.1540 os         1 7XS      -0.280900
     22 C14          2.0980    -0.4830     4.1070 ca         1 7XS      -0.134000
     23 C15          2.4520    -0.7860     5.4070 ca         1 7XS      -0.133000
     24 C17          4.0880     0.9730     5.3710 ca         1 7XS      -0.133000
     25 O2           3.7960    -0.3560     7.3220 os         1 7XS      -0.308900
     26 N4          -3.6320     1.4630    -2.4990 na         1 7XS       0.382200
     27 H8          -3.8900    -1.0020     0.6730 hc         1 7XS       0.032700
     28 H9          -2.1280    -0.8850     0.7840 hc         1 7XS       0.032700
     29 H25         -4.1900     1.9710    -4.4500 h1         1 7XS       0.023033
     30 H24         -4.4930     3.2220    -3.2360 h1         1 7XS       0.023033
     31 H23         -5.5320     1.7910    -3.3120 h1         1 7XS       0.023033
     32 H10          0.5160     3.2420    -2.9720 h5         1 7XS      -0.000900
     33 H19          4.2330     2.0820     3.5470 ha         1 7XS       0.118500
     34 H21          4.5430     1.4780     7.8930 h1         1 7XS      -0.003300
     35 H20          5.7500     0.3000     7.3570 h1         1 7XS      -0.003300
     36 H22          4.9810     0.1210     8.9400 h1         1 7XS      -0.003300
     37 H2          -1.3470    -3.4820    -1.6850 hc         1 7XS       0.006200
     38 H1          -1.4560    -1.7640    -2.0910 hc         1 7XS       0.006200
     39 H3          -0.6860    -2.2680    -0.5810 hc         1 7XS       0.006200
     40 H4          -3.6300    -2.5250    -1.2880 hc         1 7XS       0.031700
     41 H7          -3.8710    -3.4410     1.0000 hc         1 7XS       0.006200
     42 H6          -2.8340    -4.4730     0.0050 hc         1 7XS       0.006200
     43 H5          -2.1140    -3.3880     1.2030 hc         1 7XS       0.006200
     44 H12          1.8970    -0.9110    -0.4070 h1         1 7XS       0.048700
     45 H11          1.8970     0.9110    -0.4070 h1         1 7XS       0.048700
     46 H13          1.3410    -0.9950     1.9560 h1         1 7XS       0.059700
     47 H15          0.1240     1.7480     1.2350 h1         1 7XS       0.048700
     48 H14         -0.7030     0.3160     2.0000 h1         1 7XS       0.048700
     49 H16          1.3200    -1.0520     3.6120 ha         1 7XS       0.118500
     50 H17          1.9530    -1.5910     5.9310 ha         1 7XS       0.118000
     51 H18          4.8660     1.5410     5.8670 ha         1 7XS       0.118000
     52 C20         -4.5200     2.1570    -3.4350 c3         1 7XS       0.033600
@<TRIPOS>BOND
     1     1     6 1   
     2     1    18 1   
     3     1    20 1   
     4     2    14 1   
     5     2    16 1   
     6     2    27 1   
     7     2    28 1   
     8     3     6 ar  
     9     3     8 ar  
    10     4     5 ar  
    11     4    17 ar  
    12     4    26 1   
    13     5     6 ar  
    14     5    16 1   
    15     7    10 ar  
    16     7    21 1   
    17     7    22 ar  
    18     8    17 ar  
    19     8    32 1   
    20     9    16 2   
    21     9    26 1   
    22    10    24 ar  
    23    10    33 1   
    24    11    23 ar  
    25    11    24 ar  
    26    11    25 1   
    27    12    25 1   
    28    12    34 1   
    29    12    35 1   
    30    12    36 1   
    31    13    14 1   
    32    13    37 1   
    33    13    38 1   
    34    13    39 1   
    35    14    15 1   
    36    14    40 1   
    37    15    41 1   
    38    15    42 1   
    39    15    43 1   
    40    18    19 1   
    41    18    44 1   
    42    18    45 1   
    43    19    20 1   
    44    19    21 1   
    45    19    46 1   
    46    20    47 1   
    47    20    48 1   
    48    22    23 ar  
    49    22    49 1   
    50    23    50 1   
    51    24    51 1   
    52    26    52 1   
    53    29    52 1   
    54    30    52 1   
    55    31    52 1   
@<TRIPOS>SUBSTRUCTURE
     1 7XS         1 TEMP              0 ****  ****    0 ROOT
