@<TRIPOS>MOLECULE
molecule
   70    75     1     0     0
SMALL
bcc


@<TRIPOS>ATOM
      1 C4           0.0000     0.0000     0.0000 ca         1 7XU       0.485800
      2 C5           1.4090     0.0000     0.0000 ca         1 7XU      -0.169200
      3 C6           2.0710     0.0000     1.2270 ca         1 7XU       0.532200
      4 C8           0.7590     0.0020    -2.0790 cc         1 7XU       0.664700
      5 N1           1.3530    -0.0020     2.3380 nb         1 7XU      -0.781000
      6 N3          -0.6460     0.0000     1.1570 nb         1 7XU      -0.808000
      7 CAS          1.3820     0.3230     9.3830 c3         1 7XU       0.120800
      8 CAQ          2.1050     0.1010    10.7130 c3         1 7XU       0.160300
      9 NBH          3.5200     0.4670    10.5650 n3         1 7XU      -0.722600
     10 CAA          3.6670     1.9020    10.2870 c3         1 7XU       0.141100
     11 CAR          4.1640    -0.3400     9.5200 c3         1 7XU       0.160300
     12 CAT          3.4410    -0.1180     8.1890 c3         1 7XU       0.120800
     13 NBI          2.0260    -0.4840     8.3370 nh         1 7XU      -0.590000
     14 CBB          1.3470    -0.3620     7.1190 ca         1 7XU       0.083600
     15 CAJ          1.7980    -1.0490     6.0010 ca         1 7XU      -0.149500
     16 CAH          1.1280    -0.9300     4.8000 ca         1 7XU      -0.121500
     17 CAI          0.2180     0.4420     7.0320 ca         1 7XU      -0.149500
     18 CAG         -0.4550     0.5580     5.8310 ca         1 7XU      -0.121500
     19 CBA          0.0020    -0.1210     4.7100 ca         1 7XU       0.139600
     20 C2           0.0270    -0.0020     2.2990 ca         1 7XU       0.941900
     21 N7           1.8110     0.0010    -1.2980 nd         1 7XU      -0.638100
     22 N9          -0.3820     0.0060    -1.3220 na         1 7XU      -0.276000
     23 CBG         -1.7570     0.0070    -1.8270 c3         1 7XU       0.054000
     24 CAO         -1.9890    -1.2440    -2.6770 c3         1 7XU      -0.097900
     25 CAM         -3.4250    -1.2420    -3.2050 c3         1 7XU      -0.079400
     26 CAL         -3.6530     0.0060    -4.0610 c3         1 7XU      -0.086400
     27 CAN         -3.4210     1.2570    -3.2110 c3         1 7XU      -0.079400
     28 CAP         -1.9840     1.2550    -2.6830 c3         1 7XU      -0.097900
     29 NAY          0.7960     0.0020    -3.4590 nu         1 7XU      -0.728600
     30 CAZ          2.0250     0.0300    -4.1250 ca         1 7XU       0.163600
     31 CAE          2.1510    -0.5580    -5.3780 ca         1 7XU      -0.153000
     32 CAC          3.3650    -0.5290    -6.0330 ca         1 7XU      -0.107500
     33 CAB          4.4560     0.0850    -5.4450 ca         1 7XU      -0.151000
     34 CAD          4.3340     0.6710    -4.1980 ca         1 7XU      -0.107500
     35 CAF          3.1200     0.6500    -3.5390 ca         1 7XU      -0.153000
     36 H1           3.1530    -0.0000     1.2700 h4         1 7XU       0.041100
     37 H2          -1.6800     0.0440     3.4820 hn         1 7XU       0.463800
     38 H4           0.3450     0.0240     9.4820 h1         1 7XU       0.046950
     39 H5           2.0300    -0.9430    10.9930 h1         1 7XU       0.063200
     40 H6           1.6500     0.7190    11.4770 h1         1 7XU       0.063200
     41 H8           4.7160     2.1690    10.3120 h1         1 7XU       0.034033
     42 H9           3.1310     2.4720    11.0370 h1         1 7XU       0.034033
     43 H10          3.2600     2.1230     9.3080 h1         1 7XU       0.034033
     44 H11          4.1090    -1.3880     9.7890 h1         1 7XU       0.063200
     45 H12          5.2010    -0.0410     9.4210 h1         1 7XU       0.063200
     46 H13          3.8960    -0.7360     7.4250 h1         1 7XU       0.046950
     47 H14          3.5160     0.9260     7.9090 h1         1 7XU       0.046950
     48 H15          2.6760    -1.6800     6.0710 ha         1 7XU       0.138000
     49 H16          1.4800    -1.4670     3.9270 ha         1 7XU       0.143000
     50 H17         -0.1390     0.9720     7.9070 ha         1 7XU       0.138000
     51 H18         -1.3360     1.1850     5.7620 ha         1 7XU       0.143000
     52 H19         -2.4520     0.0100    -0.9960 h1         1 7XU       0.096700
     53 H20         -1.8300    -2.1270    -2.0700 hc         1 7XU       0.052700
     54 H21         -1.2990    -1.2450    -3.5130 hc         1 7XU       0.052700
     55 H22         -4.1140    -1.2370    -2.3690 hc         1 7XU       0.050200
     56 H23         -3.5870    -2.1270    -3.8080 hc         1 7XU       0.050200
     57 H24         -4.6710     0.0070    -4.4310 hc         1 7XU       0.044700
     58 H25         -2.9600     0.0030    -4.8930 hc         1 7XU       0.044700
     59 H26         -3.5790     2.1390    -3.8190 hc         1 7XU       0.050200
     60 H27         -4.1110     1.2580    -2.3760 hc         1 7XU       0.050200
     61 H28         -1.2940     1.2490    -3.5180 hc         1 7XU       0.052700
     62 H29         -1.8220     2.1400    -2.0790 hc         1 7XU       0.052700
     63 H30         -0.0570     0.0220    -3.9820 hn         1 7XU       0.459800
     64 H31          1.2970    -1.0390    -5.8390 ha         1 7XU       0.149000
     65 H32          3.4640    -0.9880    -7.0100 ha         1 7XU       0.131500
     66 H33          5.4090     0.1040    -5.9600 ha         1 7XU       0.129000
     67 H34          5.1900     1.1530    -3.7400 ha         1 7XU       0.131500
     68 H35          3.0250     1.1090    -2.5620 ha         1 7XU       0.149000
     69 N2          -0.6800    -0.0020     3.4930 nu         1 7XU      -0.758300
     70 H3           1.4360     1.3710     9.1140 h1         1 7XU       0.046950
@<TRIPOS>BOND
     1    33    34 ar
     2    33    32 ar
     3    34    35 ar
     4    32    31 ar
     5    35    30 ar
     6    31    30 ar
     7    30    29 1
     8    29     4 1
     9     4    21 2
    10     4    22 1
    11    21     2 1
    12    22    23 1
    13    22     1 1
    14     2     3 ar
    15     2     1 ar
    16    23    24 1
    17    23    28 1
    18    24    25 1
    19    25    26 1
    20     3     5 ar
    21     1     6 ar
    22    28    27 1
    23    26    27 1
    24     5    20 ar
    25     6    20 ar
    26    20    69 1
    27    69    19 1
    28    18    19 ar
    29    18    17 ar
    30    19    16 ar
    31    17    14 ar
    32    16    15 ar
    33    14    15 ar
    34    14    13 1
    35     7    13 1
    36     7     8 1
    37    13    12 1
    38     8     9 1
    39    12    11 1
    40     9    11 1
    41     9    10 1
    42     3    36 1
    43    69    37 1
    44     7    70 1
    45     7    38 1
    46     8    39 1
    47     8    40 1
    48    10    41 1
    49    10    42 1
    50    10    43 1
    51    11    44 1
    52    11    45 1
    53    12    46 1
    54    12    47 1
    55    15    48 1
    56    16    49 1
    57    17    50 1
    58    18    51 1
    59    23    52 1
    60    24    53 1
    61    24    54 1
    62    25    55 1
    63    25    56 1
    64    26    57 1
    65    26    58 1
    66    27    59 1
    67    27    60 1
    68    28    61 1
    69    28    62 1
    70    29    63 1
    71    31    64 1
    72    32    65 1
    73    33    66 1
    74    34    67 1
    75    35    68 1
@<TRIPOS>SUBSTRUCTURE
     1 7XU         1 TEMP              0 ****  ****    0 ROOT
