@<TRIPOS>MOLECULE
7XU
   70    75     1     0     0
SMALL
bcc


@<TRIPOS>ATOM
      1 C4           0.0000     0.0000     0.0000 ca         1 7XU       0.274800
      2 C5           1.4090     0.0000     0.0000 ca         1 7XU      -0.194200
      3 C6           2.0710     0.0000     1.2270 ca         1 7XU       0.527200
      4 C8           0.7590     0.0020    -2.0790 cc         1 7XU       0.326700
      5 N1           1.3530    -0.0020     2.3380 nb         1 7XU      -0.681000
      6 N3          -0.6460     0.0000     1.1570 nb         1 7XU      -0.681000
      7 CAS          1.3820     0.3230     9.3830 c3         1 7XU       0.090800
      8 CAQ          2.1050     0.1010    10.7130 c3         1 7XU       0.155800
      9 NBH          3.5200     0.4670    10.5650 n3         1 7XU      -0.542600
     10 CAA          3.6670     1.9020    10.2870 c3         1 7XU       0.167100
     11 CAR          4.1640    -0.3400     9.5200 c3         1 7XU       0.155800
     12 CAT          3.4410    -0.1180     8.1890 c3         1 7XU       0.090800
     13 NBI          2.0260    -0.4840     8.3370 nh         1 7XU      -0.354000
     14 CBB          1.3470    -0.3620     7.1190 ca         1 7XU       0.002600
     15 CAJ          1.7980    -1.0490     6.0010 ca         1 7XU      -0.128000
     16 CAH          1.1280    -0.9300     4.8000 ca         1 7XU      -0.093500
     17 CAI          0.2180     0.4420     7.0320 ca         1 7XU      -0.128000
     18 CAG         -0.4550     0.5580     5.8310 ca         1 7XU      -0.093500
     19 CBA          0.0020    -0.1210     4.7100 ca         1 7XU      -0.018400
     20 C2           0.0270    -0.0020     2.2990 ca         1 7XU       0.697900
     21 N7           1.8110     0.0010    -1.2980 nd         1 7XU      -0.557100
     22 N9          -0.3820     0.0060    -1.3220 na         1 7XU       0.177000
     23 CBG         -1.7570     0.0070    -1.8270 c3         1 7XU      -0.063000
     24 CAO         -1.9890    -1.2440    -2.6770 c3         1 7XU      -0.048400
     25 CAM         -3.4250    -1.2420    -3.2050 c3         1 7XU      -0.018400
     26 CAL         -3.6530     0.0060    -4.0610 c3         1 7XU      -0.029400
     27 CAN         -3.4210     1.2570    -3.2110 c3         1 7XU      -0.018400
     28 CAP         -1.9840     1.2550    -2.6830 c3         1 7XU      -0.048400
     29 NAY          0.7960     0.0020    -3.4590 nu         1 7XU      -0.276600
     30 CAZ          2.0250     0.0300    -4.1250 ca         1 7XU       0.007600
     31 CAE          2.1510    -0.5580    -5.3780 ca         1 7XU      -0.133000
     32 CAC          3.3650    -0.5290    -6.0330 ca         1 7XU      -0.077500
     33 CAB          4.4560     0.0850    -5.4450 ca         1 7XU      -0.124000
     34 CAD          4.3340     0.6710    -4.1980 ca         1 7XU      -0.077500
     35 CAF          3.1200     0.6500    -3.5390 ca         1 7XU      -0.133000
     36 H1           3.1530    -0.0000     1.2700 h4         1 7XU      -0.010900
     37 H2          -1.6800     0.0440     3.4820 hn         1 7XU       0.290800
     38 H4           0.3450     0.0240     9.4820 h1         1 7XU       0.026700
     39 H5           2.0300    -0.9430    10.9930 h1         1 7XU       0.029450
     40 H6           1.6500     0.7190    11.4770 h1         1 7XU       0.029450
     41 H8           4.7160     2.1690    10.3120 h1         1 7XU       0.005367
     42 H9           3.1310     2.4720    11.0370 h1         1 7XU       0.005367
     43 H10          3.2600     2.1230     9.3080 h1         1 7XU       0.005367
     44 H11          4.1090    -1.3880     9.7890 h1         1 7XU       0.029450
     45 H12          5.2010    -0.0410     9.4210 h1         1 7XU       0.029450
     46 H13          3.8960    -0.7360     7.4250 h1         1 7XU       0.026700
     47 H14          3.5160     0.9260     7.9090 h1         1 7XU       0.026700
     48 H15          2.6760    -1.6800     6.0710 ha         1 7XU       0.117500
     49 H16          1.4800    -1.4670     3.9270 ha         1 7XU       0.117500
     50 H17         -0.1390     0.9720     7.9070 ha         1 7XU       0.117500
     51 H18         -1.3360     1.1850     5.7620 ha         1 7XU       0.117500
     52 H19         -2.4520     0.0100    -0.9960 h1         1 7XU       0.070700
     53 H20         -1.8300    -2.1270    -2.0700 hc         1 7XU       0.026200
     54 H21         -1.2990    -1.2450    -3.5130 hc         1 7XU       0.026200
     55 H22         -4.1140    -1.2370    -2.3690 hc         1 7XU       0.020700
     56 H23         -3.5870    -2.1270    -3.8080 hc         1 7XU       0.020700
     57 H24         -4.6710     0.0070    -4.4310 hc         1 7XU       0.017200
     58 H25         -2.9600     0.0030    -4.8930 hc         1 7XU       0.017200
     59 H26         -3.5790     2.1390    -3.8190 hc         1 7XU       0.020700
     60 H27         -4.1110     1.2580    -2.3760 hc         1 7XU       0.020700
     61 H28         -1.2940     1.2490    -3.5180 hc         1 7XU       0.026200
     62 H29         -1.8220     2.1400    -2.0790 hc         1 7XU       0.026200
     63 H30         -0.0570     0.0220    -3.9820 hn         1 7XU       0.298800
     64 H31          1.2970    -1.0390    -5.8390 ha         1 7XU       0.126000
     65 H32          3.4640    -0.9880    -7.0100 ha         1 7XU       0.101500
     66 H33          5.4090     0.1040    -5.9600 ha         1 7XU       0.102000
     67 H34          5.1900     1.1530    -3.7400 ha         1 7XU       0.101500
     68 H35          3.0250     1.1090    -2.5620 ha         1 7XU       0.126000
     69 N2          -0.6800    -0.0020     3.4930 nu         1 7XU      -0.294300
     70 H3           1.4360     1.3710     9.1140 h1         1 7XU       0.026700
@<TRIPOS>BOND
     1     1     2 ar  
     2     1     6 ar  
     3     1    22 1   
     4     2     3 ar  
     5     2    21 1   
     6     3     5 ar  
     7     3    36 1   
     8     4    21 2   
     9     4    22 1   
    10     4    29 1   
    11     5    20 ar  
    12     6    20 ar  
    13     7     8 1   
    14     7    13 1   
    15     7    38 1   
    16     7    70 1   
    17     8     9 1   
    18     8    39 1   
    19     8    40 1   
    20     9    10 1   
    21     9    11 1   
    22    10    41 1   
    23    10    42 1   
    24    10    43 1   
    25    11    12 1   
    26    11    44 1   
    27    11    45 1   
    28    12    13 1   
    29    12    46 1   
    30    12    47 1   
    31    13    14 1   
    32    14    15 ar  
    33    14    17 ar  
    34    15    16 ar  
    35    15    48 1   
    36    16    19 ar  
    37    16    49 1   
    38    17    18 ar  
    39    17    50 1   
    40    18    19 ar  
    41    18    51 1   
    42    19    69 1   
    43    20    69 1   
    44    22    23 1   
    45    23    24 1   
    46    23    28 1   
    47    23    52 1   
    48    24    25 1   
    49    24    53 1   
    50    24    54 1   
    51    25    26 1   
    52    25    55 1   
    53    25    56 1   
    54    26    27 1   
    55    26    57 1   
    56    26    58 1   
    57    27    28 1   
    58    27    59 1   
    59    27    60 1   
    60    28    61 1   
    61    28    62 1   
    62    29    30 1   
    63    29    63 1   
    64    30    31 ar  
    65    30    35 ar  
    66    31    32 ar  
    67    31    64 1   
    68    32    33 ar  
    69    32    65 1   
    70    33    34 ar  
    71    33    66 1   
    72    34    35 ar  
    73    34    67 1   
    74    35    68 1   
    75    37    69 1   
@<TRIPOS>SUBSTRUCTURE
     1 7XU         1 TEMP              0 ****  ****    0 ROOT
