@<TRIPOS>MOLECULE
molecule
   46    48     1     0     0
SMALL
bcc


@<TRIPOS>ATOM
      1 N3           0.0000     0.0000     0.0000 na         1 7XV      -0.058200
      2 C4          -0.7230     0.0130    -2.4500 c3         1 7XV      -0.068700
      3 N2          -1.9610    -0.0010     0.9180 nc         1 7XV      -0.076000
      4 C7           1.3670     0.0000     0.0000 cc         1 7XV       0.091500
      5 C6          -0.6710    -0.0000     1.2020 cd         1 7XV      -0.176600
      6 C9           0.0730    -0.0010     2.3960 cd         1 7XV       0.437200
      7 C13          6.2680     1.1930    -2.4800 ca         1 7XV      -0.085000
      8 C8           2.0370     0.0000     1.1830 cd         1 7XV       0.266200
      9 C18          6.3500    -3.5620    -2.0700 c3         1 7XV       0.127700
     10 C16          7.6440    -1.1930    -2.2040 ca         1 7XV      -0.217000
     11 C1           0.5850     2.1390    -2.3410 c3         1 7XV      -0.090600
     12 C2          -0.6430     1.4580    -2.9470 c3         1 7XV      -0.074700
     13 C3          -0.5320     1.4670    -4.4730 c3         1 7XV      -0.090600
     14 C5          -0.9560     0.0050    -0.9610 cc         1 7XV       0.313800
     15 N1          -2.1200     0.0030    -0.3600 nd         1 7XV      -0.341700
     16 N4           1.3840    -0.0000     2.3460 nc         1 7XV      -0.638000
     17 O1           2.0490     0.0000    -1.1700 os         1 7XV      -0.326900
     18 C10          3.4760     0.0010    -1.0890 c3         1 7XV       0.145400
     19 C11          4.0660     0.0010    -2.5000 c3         1 7XV      -0.022100
     20 C12          5.5710     0.0010    -2.4150 ca         1 7XV      -0.127300
     21 C14          7.6480     1.1930    -2.4070 ca         1 7XV      -0.163000
     22 C15          8.3360     0.0010    -2.2690 ca         1 7XV      -0.083000
     23 C17          6.2590    -1.1960    -2.2710 ca         1 7XV       0.147100
     24 O2           5.5770    -2.3690    -2.2070 os         1 7XV      -0.331900
     25 H9           0.2070    -0.4970    -2.6730 hc         1 7XV       0.070700
     26 H8          -1.5410    -0.4950    -2.9470 hc         1 7XV       0.070700
     27 H11         -0.4350    -0.0010     3.3530 h4         1 7XV       0.057100
     28 H16          5.7310     2.1280    -2.5870 ha         1 7XV       0.137000
     29 H10          3.1200     0.0000     1.1810 h4         1 7XV       0.045100
     30 H21          6.9300    -3.5140    -1.1560 h1         1 7XV       0.044367
     31 H20          7.0190    -3.6590    -2.9170 h1         1 7XV       0.044367
     32 H22          5.6880    -4.4190    -2.0330 h1         1 7XV       0.044367
     33 H19          8.1840    -2.1260    -2.0940 ha         1 7XV       0.139000
     34 H1           0.6860     3.1350    -2.7550 hc         1 7XV       0.036533
     35 H3           0.4680     2.2050    -1.2660 hc         1 7XV       0.036533
     36 H2           1.4700     1.5600    -2.5740 hc         1 7XV       0.036533
     37 H4          -1.5370     1.9930    -2.6470 hc         1 7XV       0.064700
     38 H6           0.3290     0.8840    -4.7750 hc         1 7XV       0.036533
     39 H5          -0.4180     2.4870    -4.8200 hc         1 7XV       0.036533
     40 H7          -1.4280     1.0370    -4.9030 hc         1 7XV       0.036533
     41 H12          3.8090    -0.8830    -0.5580 h1         1 7XV       0.050200
     42 H13          3.8080     0.8860    -0.5590 h1         1 7XV       0.050200
     43 H14          3.7350     0.8850    -3.0310 hc         1 7XV       0.067200
     44 H15          3.7350    -0.8840    -3.0310 hc         1 7XV       0.067200
     45 H17          8.1920     2.1280    -2.4580 ha         1 7XV       0.135000
     46 H18          9.4180     0.0040    -2.2150 ha         1 7XV       0.134000
@<TRIPOS>BOND
     1    21    22 ar  
     2    21     7 ar  
     3    13    12 1   
     4    22    10 ar  
     5     7    20 ar  
     6    11    12 1   
     7    12     2 1   
     8     2    14 1   
     9    10    23 ar  
    10    20    23 ar  
    11    20    19 1   
    12    23    24 1   
    13    14    15 2   
    14    14     1 1   
    15    15     3 1   
    16    19    18 1   
    17    17    18 1   
    18    17     4 1   
    19    24     9 1   
    20     1     4 1   
    21     1     5 1   
    22     3     5 2   
    23     4     8 2   
    24     5     6 1   
    25     8    16 1   
    26     6    16 2   
    27     2    25 1   
    28     2    26 1   
    29     6    27 1   
    30     7    28 1   
    31     8    29 1   
    32     9    30 1   
    33     9    31 1   
    34     9    32 1   
    35    10    33 1   
    36    11    34 1   
    37    11    35 1   
    38    11    36 1   
    39    12    37 1   
    40    13    38 1   
    41    13    39 1   
    42    13    40 1   
    43    18    41 1   
    44    18    42 1   
    45    19    43 1   
    46    19    44 1   
    47    21    45 1   
    48    22    46 1   
@<TRIPOS>SUBSTRUCTURE
     1 7XV         1 TEMP              0 ****  ****    0 ROOT
