@<TRIPOS>MOLECULE
7XX
   30    31     1     0     0
SMALL
bcc


@<TRIPOS>ATOM
      1 C1           0.0000     0.0000     0.0000 ca         1 7XX      -0.085000
      2 C2           1.3790     0.0000     0.0000 ca         1 7XX      -0.052000
      3 C3          -0.6960    -0.0010     1.1960 ca         1 7XX      -0.066000
      4 C4           3.7230     2.4750     1.9170 cc         1 7XX      -0.077000
      5 C5           5.6620     1.4030     1.5210 cd         1 7XX      -0.183300
      6 C6           2.0760     0.0000     1.2100 ca         1 7XX      -0.160600
      7 C7           4.2890     1.2350     1.5360 cc         1 7XX      -0.215600
      8 C8          -0.0150    -0.0070     2.4010 ca         1 7XX      -0.053600
      9 C9           1.3680    -0.0020     2.4160 ca         1 7XX      -0.031600
     10 C10          4.7580     3.3410     2.1110 cd         1 7XX      -0.478900
     11 C11          3.5530    -0.0000     1.2180 c          1 7XX       0.668300
     12 C12          4.6370     4.7470     2.5160 c          1 7XX       0.397700
     13 N14          5.9370     2.6710     1.8630 na         1 7XX       0.560900
     14 N15          3.4270     5.2600     2.8150 nz         1 7XX       0.215600
     15 O16          4.1620    -1.0210     0.9590 o          1 7XX      -0.504100
     16 O17          5.6290     5.4490     2.5830 o          1 7XX      -0.473100
     17 Cl1         -0.8970    -0.0070     3.8950 cl         1 7XX       0.024600
     18 Cl2          2.2220    -0.0040     3.9280 cl         1 7XX       0.001600
     19 H1          -0.5400     0.0020    -0.9390 ha         1 7XX       0.121000
     20 H2           1.9220     0.0010    -0.9380 ha         1 7XX       0.118000
     21 H3          -1.7790    -0.0030     1.1890 ha         1 7XX       0.127000
     22 H4           2.6680     2.6950     2.0280 ha         1 7XX       0.126000
     23 H5           6.3900     0.6410     1.2700 h4         1 7XX       0.184000
     24 H6           7.4380     3.6250     2.9650 h1         1 7XX       0.048700
     25 H7           8.0170     2.4910     1.7370 h1         1 7XX       0.048700
     26 H8           7.3730     4.0650     1.2530 h1         1 7XX       0.048700
     27 H9           3.5250     6.2280     3.0510 hn         1 7XX       0.246467
     28 H10          3.0370     4.7640     3.5920 hn         1 7XX       0.246467
     29 C13          7.2790     3.2510     1.9610 c3         1 7XX      -0.049400
     30 H153         2.8220     5.1700     2.0230 hn         1 7XX       0.246467
@<TRIPOS>BOND
     1     1     2 ar  
     2     1     3 ar  
     3     1    19 1   
     4     2     6 ar  
     5     2    20 1   
     6     3     8 ar  
     7     3    21 1   
     8     4     7 1   
     9     4    10 2   
    10     4    22 1   
    11     5     7 2   
    12     5    13 1   
    13     5    23 1   
    14     6     9 ar  
    15     6    11 1   
    16     7    11 1   
    17     8     9 ar  
    18     8    17 1   
    19     9    18 1   
    20    10    12 1   
    21    10    13 1   
    22    11    15 2   
    23    12    14 1   
    24    12    16 2   
    25    13    29 1   
    26    14    27 1   
    27    14    28 1   
    28    14    30 1   
    29    24    29 1   
    30    25    29 1   
    31    26    29 1   
@<TRIPOS>SUBSTRUCTURE
     1 7XX         1 TEMP              0 ****  ****    0 ROOT
