@<TRIPOS>MOLECULE
7XY
   65    68     1     0     0
SMALL
bcc


@<TRIPOS>ATOM
      1 CAV          0.0000     0.0000     0.0000 ca         1 7XY      -0.054000
      2 CBE          1.3950     0.0000     0.0000 ca         1 7XY      -0.035600
      3 ClF          2.2560    -0.0010    -1.4900 cl         1 7XY      -0.057400
      4 CAN          2.0920     0.0000     1.2080 ca         1 7XY      -0.116000
      5 CAM          1.3950    -0.0010     2.4170 ca         1 7XY      -0.101000
      6 CAO          0.0000    -0.0000     2.4160 ca         1 7XY      -0.093000
      7 CBF         -0.6870     0.0000     1.2080 ca         1 7XY      -0.070300
      8 CAY         -2.1890     0.0010     1.2090 c3         1 7XY       0.105300
      9 NBL         -2.7350    -0.9560     2.1670 n          1 7XY      -0.213800
     10 CBD         -2.5020    -2.3270     2.1370 c          1 7XY       0.499100
     11 OAB         -2.4660    -3.1040     3.0830 o          1 7XY      -0.590100
     12 CBC         -2.2510    -2.9320     0.7930 c          1 7XY       0.922600
     13 OAE         -2.0340    -4.2470     0.9360 o          1 7XY      -0.855800
     14 OAA         -2.2320    -2.2710    -0.2240 o          1 7XY      -0.855800
     15 CAZ         -3.5860    -0.3980     3.2080 c3         1 7XY       0.114300
     16 CBG         -5.0270    -0.3550     2.7910 cc         1 7XY       0.022600
     17 SBB         -5.6110     1.0340     1.9990 ss         1 7XY      -0.152800
     18 CAT         -5.9770    -1.3180     2.9670 cd         1 7XY      -0.141000
     19 CAU         -7.2340    -0.9080     2.4360 cd         1 7XY       0.039000
     20 CBJ         -7.1770     0.3500     1.8790 cc         1 7XY      -0.110600
     21 SBM         -8.3670     1.3710     1.0870 sy         1 7XY       0.967200
     22 OAC         -9.6600     0.7110     1.1640 o          1 7XY      -0.562800
     23 OAD         -8.2090     2.7150     1.6200 o          1 7XY      -0.562800
     24 NBA         -7.8310     1.3530    -0.5340 n7         1 7XY      -0.554100
     25 CAW         -7.7450     0.0820    -1.2650 c3         1 7XY       0.225800
     26 CAX         -8.0660     0.2820    -2.7490 c3         1 7XY      -0.040400
     27 CBK         -7.0780     1.2210    -3.4960 c3         1 7XY       0.057900
     28 CBI         -5.6450     0.7040    -3.5160 ca         1 7XY      -0.079800
     29 CAR         -4.6100     1.6150    -3.5510 ca         1 7XY      -0.103750
     30 CAK         -3.2980     1.1430    -3.5690 ca         1 7XY      -0.093500
     31 CAH         -3.0510    -0.2300    -3.5530 ca         1 7XY      -0.098500
     32 CAL         -4.1160    -1.1300    -3.5180 ca         1 7XY      -0.093500
     33 CAS         -5.4280    -0.6570    -3.4990 ca         1 7XY      -0.103750
     34 CBH         -7.5500     1.5960    -4.8980 ca         1 7XY      -0.079800
     35 CAP         -7.1810     2.8170    -5.4160 ca         1 7XY      -0.103750
     36 CAI         -7.6120     3.1600    -6.6980 ca         1 7XY      -0.093500
     37 CAG         -8.4020     2.2730    -7.4290 ca         1 7XY      -0.098500
     38 CAJ         -8.7600     1.0420    -6.8780 ca         1 7XY      -0.093500
     39 CAQ         -8.3300     0.6990    -5.5970 ca         1 7XY      -0.103750
     40 HAV         -0.5450     0.0000    -0.9360 ha         1 7XY       0.129000
     41 HAN          3.1760    -0.0000     1.2080 ha         1 7XY       0.101000
     42 HAM          1.9360    -0.0010     3.3550 ha         1 7XY       0.095000
     43 HAO         -0.5440    -0.0000     3.3530 ha         1 7XY       0.107000
     44 HAY1        -2.5410     0.9930     1.4630 h1         1 7XY       0.041700
     45 HAY2        -2.5420    -0.2550     0.2170 h1         1 7XY       0.041700
     46 HAZ1        -3.4960    -1.0060     4.1000 h1         1 7XY       0.026200
     47 HAZ2        -3.2540     0.6080     3.4320 h1         1 7XY       0.026200
     48 HAT         -5.7990    -2.2710     3.4500 ha         1 7XY       0.146000
     49 HAU         -8.1540    -1.2590     2.8890 ha         1 7XY       0.125000
     50 HNBA        -7.5780     2.2090    -0.9860 hn         1 7XY       0.345800
     51 HAW1        -6.7420    -0.3170    -1.1680 h1         1 7XY       0.027200
     52 HAW2        -8.4500    -0.6220    -0.8400 h1         1 7XY       0.027200
     53 HAX1        -9.0630     0.6970    -2.8320 hc         1 7XY       0.022700
     54 HAX2        -8.0540    -0.6860    -3.2360 hc         1 7XY       0.022700
     55 HBK         -7.0570     2.1440    -2.9290 hc         1 7XY       0.019700
     56 HAR         -4.8130     2.6790    -3.5630 ha         1 7XY       0.108750
     57 HAK         -2.4710     1.8420    -3.5960 ha         1 7XY       0.102000
     58 HAH         -2.0320    -0.5970    -3.5670 ha         1 7XY       0.105500
     59 HAL         -3.9240    -2.1960    -3.5050 ha         1 7XY       0.102000
     60 HAS         -6.2630    -1.3480    -3.4720 ha         1 7XY       0.108750
     61 HAP         -6.5670     3.4990    -4.8400 ha         1 7XY       0.108750
     62 HAI         -7.3340     4.1160    -7.1260 ha         1 7XY       0.102000
     63 HAG         -8.7370     2.5390    -8.4240 ha         1 7XY       0.105500
     64 HAJ         -9.3740     0.3530    -7.4460 ha         1 7XY       0.102000
     65 HAQ         -8.6020    -0.2540    -5.1590 ha         1 7XY       0.108750
@<TRIPOS>BOND
     1     1     2 ar  
     2     1     7 ar  
     3     1    40 1   
     4     2     3 1   
     5     2     4 ar  
     6     4     5 ar  
     7     4    41 1   
     8     5     6 ar  
     9     5    42 1   
    10     6     7 ar  
    11     6    43 1   
    12     7     8 1   
    13     8     9 1   
    14     8    44 1   
    15     8    45 1   
    16     9    10 1   
    17     9    15 1   
    18    10    11 2   
    19    10    12 1   
    20    12    13 1   
    21    12    14 1   
    22    15    16 1   
    23    15    46 1   
    24    15    47 1   
    25    16    17 1   
    26    16    18 2   
    27    17    20 1   
    28    18    19 1   
    29    18    48 1   
    30    19    20 2   
    31    19    49 1   
    32    20    21 1   
    33    21    22 2   
    34    21    23 2   
    35    21    24 1   
    36    24    25 1   
    37    24    50 1   
    38    25    26 1   
    39    25    51 1   
    40    25    52 1   
    41    26    27 1   
    42    26    53 1   
    43    26    54 1   
    44    27    28 1   
    45    27    34 1   
    46    27    55 1   
    47    28    29 ar  
    48    28    33 ar  
    49    29    30 ar  
    50    29    56 1   
    51    30    31 ar  
    52    30    57 1   
    53    31    32 ar  
    54    31    58 1   
    55    32    33 ar  
    56    32    59 1   
    57    33    60 1   
    58    34    35 ar  
    59    34    39 ar  
    60    35    36 ar  
    61    35    61 1   
    62    36    37 ar  
    63    36    62 1   
    64    37    38 ar  
    65    37    63 1   
    66    38    39 ar  
    67    38    64 1   
    68    39    65 1   
@<TRIPOS>SUBSTRUCTURE
     1 7XY         1 TEMP              0 ****  ****    0 ROOT
