@<TRIPOS>MOLECULE
7Y0
   62    65     1     0     0
SMALL
bcc


@<TRIPOS>ATOM
      1 C1           0.0000     0.0000     0.0000 ca         1 7Y0      -0.096000
      2 C2           4.5640    14.5680     1.8370 ca         1 7Y0      -0.096000
      3 C3           1.3790     0.0000     0.0000 ca         1 7Y0      -0.054500
      4 C4           3.2520    14.3980     2.2290 ca         1 7Y0      -0.054500
      5 C5          -0.6960     0.0000     1.1960 ca         1 7Y0      -0.076000
      6 C6           5.5920    14.3770     2.7440 ca         1 7Y0      -0.076000
      7 C7           3.7260     2.4500     1.9950 cc         1 7Y0      -0.080000
      8 C8           1.7930    11.4050     3.7710 cc         1 7Y0      -0.080000
      9 C9           5.6600     1.4040     1.5200 cd         1 7Y0      -0.241800
     10 C10          0.0580    12.4890     4.7060 cd         1 7Y0      -0.241800
     11 C11          2.0750     0.0000     1.2110 ca         1 7Y0      -0.141100
     12 C12          2.9620    14.0310     3.5450 ca         1 7Y0      -0.141100
     13 C13          4.2890     1.2270     1.5610 cc         1 7Y0      -0.284100
     14 C14          1.2680    12.6850     4.0630 cc         1 7Y0      -0.284100
     15 C15         -0.0140     0.0000     2.4010 ca         1 7Y0      -0.048100
     16 C16          5.3120    14.0190     4.0520 ca         1 7Y0      -0.048100
     17 C17          1.3670    -0.0000     2.4160 ca         1 7Y0      -0.010600
     18 C18          4.0030    13.8400     4.4560 ca         1 7Y0      -0.010600
     19 C19          4.7600     3.3140     2.2010 cd         1 7Y0      -0.399400
     20 C20          0.8950    10.4900     4.2340 cd         1 7Y0      -0.399400
     21 C21          3.5530    -0.0010     1.2160 c          1 7Y0       0.688800
     22 C23          4.6410     4.7040     2.6580 c          1 7Y0       0.647700
     23 C24          0.5010     8.8180     4.4220 c          1 7Y0       0.647700
     24 C27          3.3000     6.6120     3.3620 c3         1 7Y0       0.029000
     25 C28          1.8420     6.9110     3.7180 c3         1 7Y0       0.029000
     26 N29          5.9370     2.6590     1.9060 na         1 7Y0       0.495400
     27 N30         -0.1620    11.1690     4.7990 na         1 7Y0       0.495400
     28 N31          3.4370     5.1970     3.0090 ns         1 7Y0      -0.194900
     29 N32          1.7050     8.3250     4.0710 ns         1 7Y0      -0.194900
     30 O33          4.1620    -1.0160     0.9380 o          1 7Y0      -0.566100
     31 O34          1.2400    15.0040     3.8290 o          1 7Y0      -0.566100
     32 O35          5.6300     5.4110     2.7200 o          1 7Y0      -0.646600
     33 O36         -0.4550     8.0720     4.5320 o          1 7Y0      -0.646600
     34 Cl1         -0.8960     0.0010     3.8960 cl         1 7Y0       0.001600
     35 Cl2          6.6090    13.7800     5.1810 cl         1 7Y0       0.001600
     36 Cl3          2.2220    -0.0010     3.9270 cl         1 7Y0       0.016600
     37 Cl4          3.6510    13.4760     6.1170 cl         1 7Y0       0.016600
     38 H1          -0.5400    -0.0000    -0.9390 ha         1 7Y0       0.111500
     39 H3           1.9210     0.0000    -0.9380 ha         1 7Y0       0.120000
     40 H4           2.4490    14.5480     1.5170 ha         1 7Y0       0.120000
     41 H5          -1.7790     0.0000     1.1900 ha         1 7Y0       0.117500
     42 H6           6.6200    14.5140     2.4310 ha         1 7Y0       0.117500
     43 H7           2.6730     2.6590     2.1380 ha         1 7Y0       0.127000
     44 H8           2.7300    11.1920     3.2690 ha         1 7Y0       0.127000
     45 H9           6.3870     0.6560     1.2270 h4         1 7Y0       0.160500
     46 H10         -0.6020    13.2700     5.0660 h4         1 7Y0       0.160500
     47 H17          3.6000     7.2250     2.5210 h1         1 7Y0       0.029700
     48 H18          3.9320     6.8340     4.2140 h1         1 7Y0       0.029700
     49 H19          1.5430     6.2980     4.5600 h1         1 7Y0       0.029700
     50 H20          1.2100     6.6880     2.8670 h1         1 7Y0       0.029700
     51 H21          2.6440     4.5890     3.0640 hn         1 7Y0       0.195000
     52 H22          2.4760     8.9460     3.9240 hn         1 7Y0       0.195000
     53 C25          7.2780     3.2420     1.9990 c3         1 7Y0      -0.040400
     54 C22          1.8910    13.9810     3.7450 c          1 7Y0       0.688800
     55 C26         -1.3380    10.5470     5.4140 c3         1 7Y0      -0.040400
     56 H2           4.7900    14.8500     0.8160 ha         1 7Y0       0.111500
     57 H11          8.0150     2.4990     1.7180 h1         1 7Y0       0.036533
     58 H12          7.4620     3.5640     3.0170 h1         1 7Y0       0.036533
     59 H13          7.3500     4.0920     1.3320 h1         1 7Y0       0.036533
     60 H14         -1.8570     9.9480     4.6760 h1         1 7Y0       0.036533
     61 H15         -1.0240     9.9160     6.2370 h1         1 7Y0       0.036533
     62 H16         -2.0020    11.3190     5.7840 h1         1 7Y0       0.036533
@<TRIPOS>BOND
     1     1     3 ar  
     2     1     5 ar  
     3     1    38 1   
     4     2     4 ar  
     5     2     6 ar  
     6     2    56 1   
     7     3    11 ar  
     8     3    39 1   
     9     4    12 ar  
    10     4    40 1   
    11     5    15 ar  
    12     5    41 1   
    13     6    16 ar  
    14     6    42 1   
    15     7    13 1   
    16     7    19 2   
    17     7    43 1   
    18     8    14 1   
    19     8    20 2   
    20     8    44 1   
    21     9    13 2   
    22     9    26 1   
    23     9    45 1   
    24    10    14 2   
    25    10    27 1   
    26    10    46 1   
    27    11    17 ar  
    28    11    21 1   
    29    12    18 ar  
    30    12    54 1   
    31    13    21 1   
    32    14    54 1   
    33    15    17 ar  
    34    15    34 1   
    35    16    18 ar  
    36    16    35 1   
    37    17    36 1   
    38    18    37 1   
    39    19    22 1   
    40    19    26 1   
    41    20    23 1   
    42    20    27 1   
    43    21    30 2   
    44    22    28 1   
    45    22    32 2   
    46    23    29 1   
    47    23    33 2   
    48    24    25 1   
    49    24    28 1   
    50    24    47 1   
    51    24    48 1   
    52    25    29 1   
    53    25    49 1   
    54    25    50 1   
    55    26    53 1   
    56    27    55 1   
    57    28    51 1   
    58    29    52 1   
    59    31    54 2   
    60    53    57 1   
    61    53    58 1   
    62    53    59 1   
    63    55    60 1   
    64    55    61 1   
    65    55    62 1   
@<TRIPOS>SUBSTRUCTURE
     1 7Y0         1 TEMP              0 ****  ****    0 ROOT
