@<TRIPOS>MOLECULE
molecule
   62    65     1     0     0
SMALL
bcc


@<TRIPOS>ATOM
      1 C1           0.0000     0.0000     0.0000 ca         1 7Y0      -0.123500
      2 C2           4.5640    14.5680     1.8370 ca         1 7Y0      -0.123500
      3 C3           1.3790     0.0000     0.0000 ca         1 7Y0      -0.087500
      4 C4           3.2520    14.3980     2.2290 ca         1 7Y0      -0.087500
      5 C5          -0.6960     0.0000     1.1960 ca         1 7Y0      -0.099000
      6 C6           5.5920    14.3770     2.7440 ca         1 7Y0      -0.099000
      7 C7           3.7260     2.4500     1.9950 cc         1 7Y0      -0.117000
      8 C8           1.7930    11.4050     3.7710 cd         1 7Y0      -0.117000
      9 C9           5.6600     1.4040     1.5200 cd         1 7Y0      -0.069300
     10 C10          0.0580    12.4890     4.7060 cc         1 7Y0      -0.069300
     11 C11          2.0750     0.0000     1.2110 ca         1 7Y0      -0.133600
     12 C12          2.9620    14.0310     3.5450 ca         1 7Y0      -0.133600
     13 C13          4.2890     1.2270     1.5610 cc         1 7Y0      -0.280600
     14 C14          1.2680    12.6850     4.0630 cd         1 7Y0      -0.280600
     15 C15         -0.0140     0.0000     2.4010 ca         1 7Y0       0.023400
     16 C16          5.3120    14.0190     4.0520 ca         1 7Y0       0.023400
     17 C17          1.3670    -0.0000     2.4160 ca         1 7Y0       0.057400
     18 C18          4.0030    13.8400     4.4560 ca         1 7Y0       0.057400
     19 C19          4.7600     3.3140     2.2010 cd         1 7Y0      -0.190400
     20 C20          0.8950    10.4900     4.2340 cc         1 7Y0      -0.190400
     21 C21          3.5530    -0.0010     1.2160 c          1 7Y0       0.636300
     22 C23          4.6410     4.7040     2.6580 c          1 7Y0       0.707700
     23 C24          0.5010     8.8180     4.4220 c          1 7Y0       0.707700
     24 C27          3.3000     6.6120     3.3620 c3         1 7Y0       0.086000
     25 C28          1.8420     6.9110     3.7180 c3         1 7Y0       0.086000
     26 N29          5.9370     2.6590     1.9060 na         1 7Y0      -0.019100
     27 N30         -0.1620    11.1690     4.7990 na         1 7Y0      -0.019100
     28 N31          3.4370     5.1970     3.0090 ns         1 7Y0      -0.577400
     29 N32          1.7050     8.3250     4.0710 ns         1 7Y0      -0.577400
     30 O33          4.1620    -1.0160     0.9380 o          1 7Y0      -0.528600
     31 O34          1.2400    15.0040     3.8290 o          1 7Y0      -0.528600
     32 O35          5.6300     5.4110     2.7200 o          1 7Y0      -0.597600
     33 O36         -0.4550     8.0720     4.5320 o          1 7Y0      -0.597600
     34 Cl1         -0.8960     0.0010     3.8960 cl         1 7Y0      -0.080400
     35 Cl2          6.6090    13.7800     5.1810 cl         1 7Y0      -0.080400
     36 Cl3          2.2220    -0.0010     3.9270 cl         1 7Y0      -0.066400
     37 Cl4          3.6510    13.4760     6.1170 cl         1 7Y0      -0.066400
     38 H1          -0.5400    -0.0000    -0.9390 ha         1 7Y0       0.145000
     39 H3           1.9210     0.0000    -0.9380 ha         1 7Y0       0.154500
     40 H4           2.4490    14.5480     1.5170 ha         1 7Y0       0.154500
     41 H5          -1.7790     0.0000     1.1900 ha         1 7Y0       0.152000
     42 H6           6.6200    14.5140     2.4310 ha         1 7Y0       0.152000
     43 H7           2.6730     2.6590     2.1380 ha         1 7Y0       0.153500
     44 H8           2.7300    11.1920     3.2690 ha         1 7Y0       0.153500
     45 H9           6.3870     0.6560     1.2270 h4         1 7Y0       0.188000
     46 H10         -0.6020    13.2700     5.0660 h4         1 7Y0       0.188000
     47 H17          3.6000     7.2250     2.5210 h1         1 7Y0       0.058450
     48 H18          3.9320     6.8340     4.2140 h1         1 7Y0       0.058450
     49 H19          1.5430     6.2980     4.5600 h1         1 7Y0       0.058450
     50 H20          1.2100     6.6880     2.8670 h1         1 7Y0       0.058450
     51 H21          2.6440     4.5890     3.0640 hn         1 7Y0       0.328000
     52 H22          2.4760     8.9460     3.9240 hn         1 7Y0       0.328000
     53 C25          7.2780     3.2420     1.9990 c3         1 7Y0       0.026100
     54 C22          1.8910    13.9810     3.7450 c          1 7Y0       0.636300
     55 C26         -1.3380    10.5470     5.4140 c3         1 7Y0       0.026100
     56 H2           4.7900    14.8500     0.8160 ha         1 7Y0       0.145000
     57 H11          8.0150     2.4990     1.7180 h1         1 7Y0       0.064867
     58 H12          7.4620     3.5640     3.0170 h1         1 7Y0       0.064867
     59 H13          7.3500     4.0920     1.3320 h1         1 7Y0       0.064867
     60 H14         -1.8570     9.9480     4.6760 h1         1 7Y0       0.064867
     61 H15         -1.0240     9.9160     6.2370 h1         1 7Y0       0.064867
     62 H16         -2.0020    11.3190     5.7840 h1         1 7Y0       0.064867
@<TRIPOS>BOND
     1    33    23 2
     2    55    27 1
     3    23    20 1
     4    23    29 1
     5    27    20 1
     6    27    10 1
     7    25    24 1
     8    25    29 1
     9    24    28 1
    10    20     8 2
    11    10    14 2
    12     8    14 1
    13    14    54 1
    14    28    22 1
    15    31    54 2
    16    54    12 1
    17    32    22 2
    18    22    19 1
    19     1     5 ar
    20     1     3 ar
    21     4    12 ar
    22     4     2 ar
    23     5    15 ar
    24    12    18 ar
    25     3    11 ar
    26     7    19 2
    27     7    13 1
    28    19    26 1
    29     2     6 ar
    30    15    34 1
    31    15    17 ar
    32    18    37 1
    33    18    16 ar
    34    11    17 ar
    35    11    21 1
    36    13    21 1
    37    13     9 2
    38    26    53 1
    39    26     9 1
    40    17    36 1
    41     6    16 ar
    42    21    30 2
    43    16    35 1
    44     1    38 1
    45     2    56 1
    46     3    39 1
    47     4    40 1
    48     5    41 1
    49     6    42 1
    50     7    43 1
    51     8    44 1
    52     9    45 1
    53    10    46 1
    54    53    57 1
    55    53    58 1
    56    53    59 1
    57    55    60 1
    58    55    61 1
    59    55    62 1
    60    24    47 1
    61    24    48 1
    62    25    49 1
    63    25    50 1
    64    28    51 1
    65    29    52 1
@<TRIPOS>SUBSTRUCTURE
     1 7Y0         1 TEMP              0 ****  ****    0 ROOT
