@<TRIPOS>MOLECULE
molecule
   49    52     1     0     0
SMALL
bcc


@<TRIPOS>ATOM
      1 N3           0.0000     0.0000     0.0000 na         1 7Y1      -0.060200
      2 C6           1.3790     0.0000     0.0000 cc         1 7Y1      -0.178600
      3 C9          -2.8070    -0.8400    -1.4070 cc         1 7Y1       0.371200
      4 C13          0.0400    -0.0010     2.3550 cc         1 7Y1       0.262200
      5 C20         -0.0270     3.7500    -3.5620 ca         1 7Y1      -0.126500
      6 C21         -0.1560     3.8470    -4.9360 ca         1 7Y1      -0.064300
      7 C16         -1.6640     1.9860    -4.9430 ca         1 7Y1      -0.096000
      8 C19         -0.9720     2.9660    -5.6230 ca         1 7Y1      -0.126500
      9 C26          1.9650     4.3730    -6.1070 c3         1 7Y1      -0.090100
     10 C27         -4.8360    -0.0210     3.7060 c3         1 7Y1      -0.091100
     11 C25         -4.1660    -0.0170     2.3300 c3         1 7Y1      -0.084400
     12 C23         -2.6470    -0.0120     2.5030 c3         1 7Y1       0.143400
     13 C10         -0.6670    -0.0040     1.1930 cd         1 7Y1       0.093500
     14 N12          1.3740     0.0010     2.3520 nc         1 7Y1      -0.639000
     15 C15          2.0570     0.0000     1.2330 cd         1 7Y1       0.437200
     16 N7           1.7640    -0.0020    -1.2640 nd         1 7Y1      -0.077000
     17 N4           0.7310    -0.0020    -2.0330 nd         1 7Y1      -0.329700
     18 C1          -0.3740     0.0000    -1.3110 cc         1 7Y1       0.406400
     19 C2          -1.7580     0.0000    -1.8280 cc         1 7Y1      -0.321200
     20 N8          -3.8770    -0.5440    -2.0940 nd         1 7Y1      -0.515800
     21 N11         -3.5800     0.4960    -2.9810 na         1 7Y1       0.076400
     22 C22         -4.5150     1.1150    -3.9250 c3         1 7Y1       0.063600
     23 C5          -2.2680     0.8300    -2.8210 cd         1 7Y1       0.030700
     24 C14         -1.5300     1.8770    -3.5570 ca         1 7Y1      -0.040000
     25 C17         -0.7090     2.7720    -2.8680 ca         1 7Y1      -0.096000
     26 H1          -2.7370    -1.6070    -0.6450 h4         1 7Y1       0.055100
     27 H2          -0.4900     0.0000     3.3000 h4         1 7Y1       0.042100
     28 H3           0.6110     4.4440    -3.0290 ha         1 7Y1       0.135000
     29 H4          -2.3030     1.2970    -5.4830 ha         1 7Y1       0.135000
     30 H5          -1.0720     3.0500    -6.6990 ha         1 7Y1       0.135000
     31 H6           1.9280     3.2910    -6.1510 hc         1 7Y1       0.039700
     32 H7           2.6780     4.6790    -5.3510 hc         1 7Y1       0.039700
     33 H8           2.2700     4.7640    -7.0710 hc         1 7Y1       0.039700
     34 H9          -5.9120     0.0060     3.5830 hc         1 7Y1       0.041033
     35 H10         -4.5560    -0.9200     4.2420 hc         1 7Y1       0.041033
     36 H11         -4.5150     0.8490     4.2660 hc         1 7Y1       0.041033
     37 H12         -4.4710     0.8660     1.7820 hc         1 7Y1       0.061200
     38 H13         -4.4640    -0.9030     1.7810 hc         1 7Y1       0.061200
     39 H14         -2.3490     0.8740     3.0520 h1         1 7Y1       0.044200
     40 H15         -2.3420    -0.8960     3.0510 h1         1 7Y1       0.044200
     41 H16          3.1400     0.0020     1.2570 h4         1 7Y1       0.056100
     42 H18         -5.5300     0.9610    -3.5800 h1         1 7Y1       0.058367
     43 H19         -4.3930     0.6640    -4.9020 h1         1 7Y1       0.058367
     44 H20         -4.3120     2.1780    -3.9890 h1         1 7Y1       0.058367
     45 H21         -0.6040     2.6950    -1.7930 ha         1 7Y1       0.135000
     46 H22          0.0360     5.2010    -6.5670 hc         1 7Y1       0.046700
     47 H23          0.7330     5.7780    -5.0460 hc         1 7Y1       0.046700
     48 O18         -2.0220    -0.0090     1.2180 os         1 7Y1      -0.319900
     49 C24          0.5980     4.9140    -5.6860 c3         1 7Y1      -0.041100
@<TRIPOS>BOND
     1    14    15 2
     2    14     4 1
     3    15     2 1
     4     4    13 2
     5     2    16 2
     6     2     1 1
     7    13     1 1
     8    13    48 1
     9    16    17 1
    10     1    18 1
    11    12    48 1
    12    12    11 1
    13    17    18 2
    14    18    19 1
    15    11    10 1
    16    19     3 1
    17    19    23 2
    18     3    20 2
    19    25     5 ar
    20    25    24 ar
    21     5     6 ar
    22    23    24 1
    23    23    21 1
    24    24     7 ar
    25     6    49 1
    26     6     8 ar
    27    49     9 1
    28    20    21 1
    29     7     8 ar
    30    21    22 1
    31     3    26 1
    32     4    27 1
    33     5    28 1
    34     7    29 1
    35     8    30 1
    36     9    31 1
    37     9    32 1
    38     9    33 1
    39    10    34 1
    40    10    35 1
    41    10    36 1
    42    11    37 1
    43    11    38 1
    44    12    39 1
    45    12    40 1
    46    15    41 1
    47    22    42 1
    48    22    43 1
    49    22    44 1
    50    25    45 1
    51    49    46 1
    52    49    47 1
@<TRIPOS>SUBSTRUCTURE
     1 7Y1         1 TEMP              0 ****  ****    0 ROOT
