@<TRIPOS>MOLECULE
molecule
   19    20     1     0     0
SMALL
bcc


@<TRIPOS>ATOM
      1 Br1          0.0000     0.0000     0.0000 br         1 7Y3      -0.021100
      2 S2           2.9050     0.0000     1.4370 ss         1 7Y3       0.008200
      3 C3           1.8900     0.0000     0.0000 cc         1 7Y3       0.055000
      4 C4           2.6600     0.0000    -1.0910 cd         1 7Y3      -0.156000
      5 C5           4.0220    -0.0000    -0.8430 cd         1 7Y3      -0.007000
      6 C6           4.3590    -0.0010     0.4480 cc         1 7Y3      -0.281600
      7 S7           6.0080    -0.0010     1.0670 sy         1 7Y3       1.449300
      8 O8           5.9450    -0.5460     2.3780 o          1 7Y3      -0.595300
      9 O9           6.8230    -0.5440     0.0380 o          1 7Y3      -0.595300
     10 N10          6.4670     1.5820     1.2410 na         1 7Y3      -0.090100
     11 C12          6.3040     2.3380     2.3450 cc         1 7Y3      -0.088300
     12 C13          6.8090     3.5660     2.0830 cd         1 7Y3      -0.320300
     13 C14          7.2980     3.5580     0.7720 cd         1 7Y3       0.358200
     14 N11          7.0990     2.3680     0.2680 nc         1 7Y3      -0.466800
     15 H1           2.2500     0.0010    -2.0930 ha         1 7Y3       0.167000
     16 H2           4.7590    -0.0000    -1.6380 ha         1 7Y3       0.175000
     17 H3           5.8490     2.0210     3.2760 h4         1 7Y3       0.192000
     18 H4           6.8290     4.4060     2.7660 ha         1 7Y3       0.161000
     19 H5           7.7670     4.3920     0.2640 h4         1 7Y3       0.056100
@<TRIPOS>BOND
     1     9     7 2
     2     8     7 2
     3     7    10 1
     4     7     6 1
     5    14    10 1
     6    14    13 2
     7    10    11 1
     8    13    12 1
     9    11    12 2
    10     6     2 1
    11     6     5 2
    12     2     3 1
    13     5     4 1
    14     3     4 2
    15     3     1 1
    16     4    15 1
    17     5    16 1
    18    11    17 1
    19    12    18 1
    20    13    19 1
@<TRIPOS>SUBSTRUCTURE
     1 7Y3         1 TEMP              0 ****  ****    0 ROOT
