@<TRIPOS>MOLECULE
molecule
   62    66     1     0     0
SMALL
bcc


@<TRIPOS>ATOM
      1 C4           0.0000     0.0000     0.0000 ca         1 7Y4      -0.128500
      2 C7           4.4710    -1.9320    -1.9250 ca         1 7Y4      -0.460500
      3 C6           4.9720    -2.7020    -4.4440 ca         1 7Y4       0.726900
      4 C9           4.3850    -0.7810     0.4350 cc         1 7Y4      -0.313200
      5 C13          3.7790    -3.0150    -2.5000 ca         1 7Y4       0.506800
      6 C20          3.9040     1.7730     2.9800 c3         1 7Y4       0.064600
      7 C8           2.0730     0.0000     1.2110 ca         1 7Y4      -0.031000
      8 C18          8.2580     0.9420    -2.5440 c3         1 7Y4       0.162500
      9 C16          5.8710     1.0460    -2.9380 c3         1 7Y4       0.154800
     10 C19         -2.7180    -1.4360     1.1820 c3         1 7Y4      -0.087100
     11 C1           1.3670    -0.0000     2.4140 ca         1 7Y4      -0.101000
     12 C2           1.3790     0.0000     0.0000 ca         1 7Y4      -0.101000
     13 C3          -0.0130    -0.0050     2.4000 ca         1 7Y4      -0.128500
     14 C5           5.7100    -0.4480     0.7700 cc         1 7Y4       0.391200
     15 C10         -0.6950    -0.0010     1.1970 ca         1 7Y4      -0.071300
     16 C11          3.9580    -1.7900    -0.5630 cc         1 7Y4       0.501500
     17 C12          3.5510     0.0070     1.2190 cd         1 7Y4       0.004700
     18 C14          5.4360    -1.2650    -2.6990 ca         1 7Y4       0.703200
     19 C15          7.0840     1.9470    -2.5930 c3         1 7Y4      -0.081400
     20 C17          7.6030    -0.4300    -2.2950 c3         1 7Y4       0.151800
     21 C24         -2.2020     0.0050     1.1880 c3         1 7Y4      -0.040100
     22 N25          5.6860     0.4770     1.6910 nd         1 7Y4      -0.513800
     23 N26          4.0640    -3.3590    -3.7570 nb         1 7Y4      -0.775000
     24 N27          5.6460    -1.6830    -3.9430 nb         1 7Y4      -0.822000
     25 N28          3.0480    -2.7190    -0.3880 nd         1 7Y4      -0.494100
     26 N29          4.3550     0.7850     1.9960 na         1 7Y4       0.071400
     27 N30          2.9180    -3.4820    -1.5540 na         1 7Y4      -0.034800
     28 N31          6.1470    -0.2010    -2.1780 nh         1 7Y4      -0.693300
     29 H1          -0.5400     0.0020    -0.9390 ha         1 7Y4       0.132500
     30 H2           5.1760    -3.0090    -5.4620 h5         1 7Y4       0.059100
     31 H3           3.0720     2.3350     2.5720 h1         1 7Y4       0.055367
     32 H4           3.5900     1.2660     3.8830 h1         1 7Y4       0.055367
     33 H5           4.7180     2.4500     3.2100 h1         1 7Y4       0.055367
     34 H6           2.5660    -5.5080    -1.9430 h1         1 7Y4       0.055700
     35 H7           1.3260    -4.4020    -2.5510 h1         1 7Y4       0.055700
     36 H8           1.4260    -4.7530    -0.8200 h1         1 7Y4       0.055700
     37 H9           8.7850     0.9380    -3.4910 h1         1 7Y4       0.032700
     38 H10          4.9490     1.5020    -2.5980 h1         1 7Y4       0.056200
     39 H11          5.8370     0.8440    -4.0020 h1         1 7Y4       0.056200
     40 H12         -2.2090    -2.0050     1.9510 hc         1 7Y4       0.037033
     41 H13         -3.7830    -1.4390     1.3770 hc         1 7Y4       0.037033
     42 H14         -2.5260    -1.8840     0.2150 hc         1 7Y4       0.037033
     43 H15          1.9000    -0.0020     3.3570 ha         1 7Y4       0.137000
     44 H16          1.9220     0.0000    -0.9370 ha         1 7Y4       0.137000
     45 H17         -0.5630    -0.0050     3.3330 ha         1 7Y4       0.132500
     46 H18          6.6020    -0.8860     0.3360 h4         1 7Y4       0.060100
     47 H19          7.2440     2.6840    -3.3710 hc         1 7Y4       0.062200
     48 H20          6.9460     2.4200    -1.6290 hc         1 7Y4       0.062200
     49 H21          7.8070    -1.0920    -3.1280 h1         1 7Y4       0.061700
     50 H22          7.9840    -0.8570    -1.3750 h1         1 7Y4       0.061700
     51 H23         10.4230    -0.2140    -2.2180 h1         1 7Y4       0.032367
     52 H24         11.0680     0.6920    -0.8430 h1         1 7Y4       0.032367
     53 H25          9.8270    -0.5410    -0.5850 h1         1 7Y4       0.032367
     54 H26          9.0570     3.3660    -1.5940 h1         1 7Y4       0.032367
     55 H27         10.2390     2.5950    -2.6600 h1         1 7Y4       0.032367
     56 H28         10.5800     2.7570    -0.9320 h1         1 7Y4       0.032367
     57 H29         -2.5560     0.5180     0.3030 hc         1 7Y4       0.047200
     58 H30         -2.5660     0.5150     2.0720 hc         1 7Y4       0.047200
     59 N32          9.1720     1.2790    -1.4450 n3         1 7Y4      -0.723600
     60 C21          1.9990    -4.6100    -1.7290 c3         1 7Y4       0.074600
     61 C22         10.1820     0.2290    -1.2590 c3         1 7Y4       0.151600
     62 C23          9.8040     2.5850    -1.6680 c3         1 7Y4       0.151600
@<TRIPOS>BOND
     1     3    23 ar  
     2     3    24 ar  
     3    23     5 ar  
     4    24    18 ar  
     5     9    19 1   
     6     9    28 1   
     7     5     2 ar  
     8     5    27 1   
     9    18     2 ar  
    10    18    28 1   
    11    60    27 1   
    12    19     8 1   
    13     2    16 1   
    14    28    20 1   
    15    27    25 1   
    16     8    20 1   
    17     8    59 1   
    18    16    25 2   
    19    16     4 1   
    20    62    59 1   
    21    59    61 1   
    22     4    14 1   
    23     4    17 2   
    24    14    22 2   
    25    12     1 ar  
    26    12     7 ar  
    27    17     7 1   
    28    17    26 1   
    29     1    15 ar  
    30    22    26 1   
    31     7    11 ar  
    32    26     6 1   
    33    15    21 1   
    34    15    13 ar  
    35    11    13 ar  
    36    21    10 1   
    37     1    29 1   
    38     3    30 1   
    39     6    31 1   
    40     6    32 1   
    41     6    33 1   
    42    60    34 1   
    43    60    35 1   
    44    60    36 1   
    45     8    37 1   
    46     9    38 1   
    47     9    39 1   
    48    10    40 1   
    49    10    41 1   
    50    10    42 1   
    51    11    43 1   
    52    12    44 1   
    53    13    45 1   
    54    14    46 1   
    55    19    47 1   
    56    19    48 1   
    57    20    49 1   
    58    20    50 1   
    59    61    51 1   
    60    61    52 1   
    61    61    53 1   
    62    62    54 1   
    63    62    55 1   
    64    62    56 1   
    65    21    57 1   
    66    21    58 1   
@<TRIPOS>SUBSTRUCTURE
     1 7Y4         1 TEMP              0 ****  ****    0 ROOT
