@<TRIPOS>MOLECULE
7Y6
   52    54     1     0     0
SMALL
bcc


@<TRIPOS>ATOM
      1 Cl           0.0000     0.0000     0.0000 cl         1 7Y6      -0.017400
      2 C12          1.7360     0.0000     0.0000 ca         1 7Y6       0.038400
      3 C11          2.4250     0.0000     1.2040 ca         1 7Y6      -0.157000
      4 C10          3.8020     0.0010     1.2160 ca         1 7Y6      -0.028000
      5 C13          2.4240    -0.0050    -1.1990 ca         1 7Y6      -0.238000
      6 C14          3.8100    -0.0060    -1.2050 ca         1 7Y6       0.238100
      7 O2           4.4860    -0.0110    -2.3800 os         1 7Y6      -0.245900
      8 C15          3.7110     0.1050    -3.5750 c3         1 7Y6       0.154100
      9 C19          4.5780     0.6920    -4.6930 c3         1 7Y6      -0.045400
     10 C18          3.7610     0.7560    -5.9840 c3         1 7Y6       0.152800
     11 N2           3.3080    -0.5920    -6.3480 n7         1 7Y6      -0.577200
     12 C17          2.4350    -1.1570    -5.3110 c3         1 7Y6       0.152800
     13 C16          3.2120    -1.2790    -3.9980 c3         1 7Y6      -0.045400
     14 C9           4.5100     0.0010     0.0110 ca         1 7Y6      -0.220600
     15 C8           5.9840     0.0020     0.0170 c          1 7Y6       0.601700
     16 O1           6.5960     0.0020    -1.0340 o          1 7Y6      -0.621100
     17 N            8.6800     0.0040     0.0760 n2         1 7Y6      -0.715100
     18 N1           6.6530     0.0030     1.1860 ns         1 7Y6      -0.075400
     19 C7           8.0300     0.0040     1.1920 c2         1 7Y6       0.244900
     20 C6           8.7770     0.0060     2.5000 c3         1 7Y6       0.011600
     21 C5          10.2600     0.0070     2.2300 ca         1 7Y6      -0.023300
     22 C4          10.9390     1.2050     2.1060 ca         1 7Y6      -0.129000
     23 C3          12.2990     1.2090     1.8590 ca         1 7Y6      -0.055000
     24 C2          12.9840     0.0160     1.7360 ca         1 7Y6      -0.212000
     25 C20         10.9410    -1.1900     2.1130 ca         1 7Y6      -0.126000
     26 C1          12.3050    -1.1880     1.8610 ca         1 7Y6       0.153100
     27 O           12.9760    -2.3630     1.7400 os         1 7Y6      -0.309900
     28 C           14.3810    -2.2850     1.4840 c3         1 7Y6       0.244700
     29 H11          1.8780    -0.0000     2.1390 ha         1 7Y6       0.121000
     30 H13          1.8790     0.0050    -2.1350 ha         1 7Y6       0.145000
     31 H10          4.3360     0.0030     2.1590 ha         1 7Y6       0.103000
     32 H15          2.8620     0.7560    -3.4000 h1         1 7Y6       0.018700
     33 H191         5.4450     0.0600    -4.8460 hc         1 7Y6       0.035200
     34 H192         4.8960     1.6900    -4.4170 hc         1 7Y6       0.035200
     35 H161         2.5610    -1.6780    -3.2300 hc         1 7Y6       0.035200
     36 H162         4.0590    -1.9390    -4.1410 hc         1 7Y6       0.035200
     37 H181         2.8990     1.3960    -5.8330 h1         1 7Y6       0.005700
     38 H182         4.3770     1.1560    -6.7810 h1         1 7Y6       0.005700
     39 H2           2.8130    -0.5550    -7.2170 hn         1 7Y6       0.252800
     40 H171         2.0960    -2.1380    -5.6210 h1         1 7Y6       0.005700
     41 H172         1.5830    -0.5040    -5.1650 h1         1 7Y6       0.005700
     42 H1           6.1490     0.0020     2.0510 hn         1 7Y6       0.172500
     43 H            8.1830     0.0030    -0.7930 hn         1 7Y6       0.412400
     44 H61C         8.5120     0.8900     3.0660 hc         1 7Y6       0.019700
     45 H62C         8.5140    -0.8790     3.0670 hc         1 7Y6       0.019700
     46 H4          10.4030     2.1420     2.2020 ha         1 7Y6       0.103000
     47 H20         10.4090    -2.1280     2.2110 ha         1 7Y6       0.115000
     48 H3          12.8280     2.1490     1.7620 ha         1 7Y6       0.097000
     49 HA          14.0500     0.0200     1.5400 ha         1 7Y6       0.117000
     50 HC1         14.5500    -1.7570     0.5540 h1         1 7Y6      -0.003633
     51 HC2         14.8660    -1.7550     2.2940 h1         1 7Y6      -0.003633
     52 HC3         14.7900    -3.2860     1.4120 h1         1 7Y6      -0.003633
@<TRIPOS>BOND
     1     1     2 1   
     2     2     3 ar  
     3     2     5 ar  
     4     3     4 ar  
     5     3    29 1   
     6     4    14 ar  
     7     4    31 1   
     8     5     6 ar  
     9     5    30 1   
    10     6     7 1   
    11     6    14 ar  
    12     7     8 1   
    13     8     9 1   
    14     8    13 1   
    15     8    32 1   
    16     9    10 1   
    17     9    33 1   
    18     9    34 1   
    19    10    11 1   
    20    10    37 1   
    21    10    38 1   
    22    11    12 1   
    23    11    39 1   
    24    12    13 1   
    25    12    40 1   
    26    12    41 1   
    27    13    35 1   
    28    13    36 1   
    29    14    15 1   
    30    15    16 2   
    31    15    18 1   
    32    17    19 2   
    33    17    43 1   
    34    18    19 1   
    35    18    42 1   
    36    19    20 1   
    37    20    21 1   
    38    20    44 1   
    39    20    45 1   
    40    21    22 ar  
    41    21    25 ar  
    42    22    23 ar  
    43    22    46 1   
    44    23    24 ar  
    45    23    48 1   
    46    24    26 ar  
    47    24    49 1   
    48    25    26 ar  
    49    25    47 1   
    50    26    27 1   
    51    27    28 1   
    52    28    50 1   
    53    28    51 1   
    54    28    52 1   
@<TRIPOS>SUBSTRUCTURE
     1 7Y6         1 TEMP              0 ****  ****    0 ROOT
