@<TRIPOS>MOLECULE
7Y7
   58    62     1     0     0
SMALL
bcc


@<TRIPOS>ATOM
      1 N3           0.0000     0.0000     0.0000 na         1 7Y7       0.612300
      2 C5           3.1460     0.0010     1.8150 c          1 7Y7       0.631700
      3 C6           6.9350    -0.9710     3.3740 ca         1 7Y7      -0.190600
      4 C7           0.5890     0.0010     2.1230 cc         1 7Y7       0.434200
      5 C8           7.9560    -1.7650     2.6740 c          1 7Y7       0.615100
      6 C10         -0.8190     0.0050    -1.1370 ca         1 7Y7      -0.165200
      7 C15          7.3130    -0.2980     4.5570 ca         1 7Y7       0.132400
      8 C21         -2.0240    -0.6840    -1.1280 ca         1 7Y7      -0.060000
      9 C26         -2.8300    -0.6770    -2.2510 ca         1 7Y7      -0.119300
     10 C28          5.0900     0.5530     4.7730 ca         1 7Y7      -0.099000
     11 C1           1.7600     0.0000     1.3280 cc         1 7Y7      -0.441900
     12 C2           1.3500     0.0000     0.0000 cd         1 7Y7       0.043800
     13 N4          -0.4420     0.0010     1.3270 nd         1 7Y7      -0.656800
     14 N9           9.1970    -1.7980     3.2130 ns         1 7Y7      -0.019400
     15 N11          8.5920    -0.4090     4.9960 nc         1 7Y7      -0.536100
     16 C12         -6.4700    -0.9920    -1.6810 c          1 7Y7       0.567100
     17 N13          3.3960     0.0020     3.1390 ns         1 7Y7      -0.033100
     18 C14          9.4730    -1.1180     4.3570 cd         1 7Y7       0.323800
     19 C16          5.6300    -0.8670     2.9000 ca         1 7Y7      -0.024000
     20 N17         -7.4510    -0.1750    -1.2480 ns         1 7Y7      -0.050100
     21 N18         -5.2050    -0.5370    -1.7720 ns         1 7Y7      -0.220900
     22 C19          4.7120    -0.1050     3.6020 ca         1 7Y7      -0.108400
     23 O20          4.0690     0.0010     1.0210 o          1 7Y7      -0.637100
     24 O23         -6.7260    -2.1390    -1.9890 o          1 7Y7      -0.694100
     25 O24          2.1530    -0.0020    -1.0890 oh         1 7Y7      -0.448100
     26 C25          6.3680     0.4650     5.2460 ca         1 7Y7      -0.073000
     27 C27         -4.1380    -1.4240    -2.2420 c3         1 7Y7       0.128300
     28 C29         -8.7450    -0.6740    -1.0610 ca         1 7Y7      -0.074400
     29 C30         -0.4290     0.7040    -2.2720 ca         1 7Y7      -0.086000
     30 C31         -1.2400     0.7060    -3.3910 ca         1 7Y7      -0.091000
     31 C32         -2.4370     0.0150    -3.3810 ca         1 7Y7      -0.073000
     32 C33         -9.5320    -0.1960    -0.0210 ca         1 7Y7      -0.122500
     33 C34         -9.2480    -1.6440    -1.9190 ca         1 7Y7      -0.122500
     34 C35        -10.5250    -2.1340    -1.7320 ca         1 7Y7      -0.083000
     35 C36        -10.8090    -0.6900     0.1590 ca         1 7Y7      -0.083000
     36 C37        -11.3040    -1.6590    -0.6920 ca         1 7Y7      -0.119000
     37 H1           0.5570     0.0020     3.2060 h4         1 7Y7       0.003100
     38 H2          -2.3060    -1.2720    -0.2630 ha         1 7Y7       0.131000
     39 H3           4.3590     1.1430     5.3140 ha         1 7Y7       0.105000
     40 H5           9.9180    -2.3280     2.7650 hn         1 7Y7       0.181500
     41 H6           2.6400     0.0710     3.7910 hn         1 7Y7       0.167500
     42 H7          10.4790    -1.1700     4.7560 h5         1 7Y7       0.001800
     43 H8           5.3350    -1.3780     1.9910 ha         1 7Y7       0.159000
     44 H9          -7.2320     0.7610    -0.9680 hn         1 7Y7       0.159500
     45 H10         -4.9940     0.4080    -1.5170 hn         1 7Y7       0.171500
     46 H11          6.6470     0.9820     6.1560 ha         1 7Y7       0.120000
     47 H12         -4.0620    -2.2790    -1.5810 h1         1 7Y7       0.030700
     48 H13         -4.3670    -1.7640    -3.2450 h1         1 7Y7       0.030700
     49 H14          0.5090     1.2460    -2.2810 ha         1 7Y7       0.133000
     50 H15         -0.9360     1.2490    -4.2780 ha         1 7Y7       0.113000
     51 H16         -3.0710     0.0190    -4.2590 ha         1 7Y7       0.113000
     52 H17         -9.1450     0.5640     0.6470 ha         1 7Y7       0.124500
     53 H18         -8.6380    -2.0160    -2.7330 ha         1 7Y7       0.124500
     54 H19        -10.9170    -2.8920    -2.3990 ha         1 7Y7       0.101500
     55 H20        -11.4220    -0.3190     0.9720 ha         1 7Y7       0.101500
     56 H21        -12.3060    -2.0440    -0.5480 ha         1 7Y7       0.102000
     57 H4           2.4620    -0.8780    -1.2500 ho         1 7Y7       0.425000
     58 O22          7.6940    -2.3690     1.6500 o          1 7Y7      -0.656500
@<TRIPOS>BOND
     1     1     6 1   
     2     1    12 1   
     3     1    13 1   
     4     2    11 1   
     5     2    17 1   
     6     2    23 2   
     7     3     5 1   
     8     3     7 ar  
     9     3    19 ar  
    10     4    11 1   
    11     4    13 2   
    12     4    37 1   
    13     5    14 1   
    14     5    58 2   
    15     6     8 ar  
    16     6    29 ar  
    17     7    15 1   
    18     7    26 ar  
    19     8     9 ar  
    20     8    38 1   
    21     9    27 1   
    22     9    31 ar  
    23    10    22 ar  
    24    10    26 ar  
    25    10    39 1   
    26    11    12 2   
    27    12    25 1   
    28    14    18 1   
    29    14    40 1   
    30    15    18 2   
    31    16    20 1   
    32    16    21 1   
    33    16    24 2   
    34    17    22 1   
    35    17    41 1   
    36    18    42 1   
    37    19    22 ar  
    38    19    43 1   
    39    20    28 1   
    40    20    44 1   
    41    21    27 1   
    42    21    45 1   
    43    25    57 1   
    44    26    46 1   
    45    27    47 1   
    46    27    48 1   
    47    28    32 ar  
    48    28    33 ar  
    49    29    30 ar  
    50    29    49 1   
    51    30    31 ar  
    52    30    50 1   
    53    31    51 1   
    54    32    35 ar  
    55    32    52 1   
    56    33    34 ar  
    57    33    53 1   
    58    34    36 ar  
    59    34    54 1   
    60    35    36 ar  
    61    35    55 1   
    62    36    56 1   
@<TRIPOS>SUBSTRUCTURE
     1 7Y7         1 TEMP              0 ****  ****    0 ROOT
