@<TRIPOS>MOLECULE
molecule
   66    69     1     0     0
SMALL
bcc


@<TRIPOS>ATOM
      1 C10          0.0000     0.0000     0.0000 c3         1 7Y9      -0.081600
      2 C13          2.8420    -1.0990    -1.8260 ca         1 7Y9      -0.112500
      3 C15          1.5980     0.1310     3.7730 ca         1 7Y9      -0.188000
      4 C17          2.9550     0.0000     4.0290 ca         1 7Y9       0.130100
      5 C20          2.9490    -3.4850    -2.0250 ca         1 7Y9       0.104100
      6 C21          4.8170    -0.1430     5.5000 c3         1 7Y9       0.186700
      7 C22          5.1310    -0.1250     6.9740 ca         1 7Y9      -0.090300
      8 C24          5.6770     1.0880     8.9630 ca         1 7Y9      -0.120300
      9 C26          5.9670     2.3950     9.6580 c3         1 7Y9       0.183700
     10 C28          5.4380    -1.2930     9.0410 ca         1 7Y9      -0.129000
     11 O01          3.4080    -0.0040     5.3110 os         1 7Y9      -0.329900
     12 O02          3.3970    -4.5930    -2.6730 oh         1 7Y9      -0.520100
     13 O03          7.3680     2.6660     9.5960 os         1 7Y9      -0.296900
     14 N04         10.4170     7.7120    11.9810 n2         1 7Y9      -0.736100
     15 N05          8.2490     8.2480    12.6170 nz         1 7Y9      -0.742600
     16 C06          1.5300     0.0000     0.0000 c3         1 7Y9       0.031600
     17 C07          2.0320    -0.0040     1.4220 ca         1 7Y9      -0.103300
     18 C08          2.0320    -1.2290    -0.7130 ca         1 7Y9      -0.084300
     19 C09          2.0400     1.2500    -0.7180 c3         1 7Y9      -0.081600
     20 C11          1.1400     0.1290     2.4690 ca         1 7Y9      -0.085500
     21 C12          3.3860    -0.1240     1.6740 ca         1 7Y9      -0.085500
     22 C14          1.6820    -2.4860    -0.2530 ca         1 7Y9      -0.112500
     23 C16          3.8490    -0.1280     2.9760 ca         1 7Y9      -0.188000
     24 C18          3.2980    -2.2230    -2.4850 ca         1 7Y9      -0.151000
     25 C19          2.1410    -3.6130    -0.9050 ca         1 7Y9      -0.151000
     26 C23          5.3900     1.0730     7.6110 ca         1 7Y9      -0.076000
     27 C25          5.1510    -1.3080     7.6900 ca         1 7Y9      -0.078000
     28 C27          5.7040    -0.0950     9.6780 ca         1 7Y9      -0.091000
     29 C29          7.8010     3.8150    10.1790 ca         1 7Y9       0.210100
     30 C30          6.8900     4.6590    10.8030 ca         1 7Y9      -0.174500
     31 C31          9.1510     4.1390    10.1540 ca         1 7Y9      -0.174500
     32 C32          8.6810     6.1560    11.3680 ca         1 7Y9      -0.292900
     33 C33          7.3250     5.8250    11.3950 ca         1 7Y9      -0.057000
     34 C34          9.5920     5.3030    10.7450 ca         1 7Y9      -0.057000
     35 C35          9.1500     7.4070    12.0020 ce         1 7Y9       0.528800
     36 H1          -0.3610     0.9400     0.3990 hc         1 7Y9       0.040867
     37 H2          -0.3610    -0.8160     0.6140 hc         1 7Y9       0.040867
     38 H3          -0.3610    -0.1240    -1.0140 hc         1 7Y9       0.040867
     39 H4           3.1140    -0.1140    -2.1850 ha         1 7Y9       0.137500
     40 H5           0.8980     0.2350     4.5930 ha         1 7Y9       0.137000
     41 H6           5.3300     0.6780     5.0130 h1         1 7Y9       0.045200
     42 H7           5.1480    -1.0810     5.0720 h1         1 7Y9       0.045200
     43 H8           5.6570     2.3290    10.6940 h1         1 7Y9       0.047700
     44 H9           5.4230     3.1930     9.1680 h1         1 7Y9       0.047700
     45 H10          5.4560    -2.2190     9.6020 ha         1 7Y9       0.144000
     46 H11          4.2210    -4.8610    -2.3030 ho         1 7Y9       0.418000
     47 H12         11.0730     7.1020    11.5350 hn         1 7Y9       0.481400
     48 H13          7.5730     8.5610    11.9480 hn         1 7Y9       0.472467
     49 H14          8.7340     9.0380    12.9950 hn         1 7Y9       0.472467
     50 H15          3.1210     1.2200    -0.7720 hc         1 7Y9       0.040867
     51 H16          1.6290     1.2850    -1.7200 hc         1 7Y9       0.040867
     52 H17          1.7300     2.1330    -0.1700 hc         1 7Y9       0.040867
     53 H18          0.0810     0.2310     2.2670 ha         1 7Y9       0.142000
     54 H19          4.0840    -0.2240     0.8510 ha         1 7Y9       0.142000
     55 H20          1.0490    -2.5860     0.6210 ha         1 7Y9       0.137500
     56 H21          4.9090    -0.2260     3.1740 ha         1 7Y9       0.137000
     57 H22          3.9320    -2.1200    -3.3570 ha         1 7Y9       0.141500
     58 H23          1.8660    -4.5970    -0.5450 ha         1 7Y9       0.141500
     59 H24          5.3540     2.0010     7.0540 ha         1 7Y9       0.137000
     60 H25          4.9430    -2.2470     7.1920 ha         1 7Y9       0.147000
     61 H26          5.9280    -0.0820    10.7380 ha         1 7Y9       0.133000
     62 H27          5.8410     4.3910    10.8400 ha         1 7Y9       0.171000
     63 H28          9.8580     3.4760     9.6700 ha         1 7Y9       0.171000
     64 H29          6.6120     6.5000    11.8510 ha         1 7Y9       0.126000
     65 H30         10.6500     5.5330    10.7640 ha         1 7Y9       0.126000
     66 H053         7.8160     7.7720    13.3840 hn         1 7Y9       0.472467
@<TRIPOS>BOND
     1    19    16 1   
     2    25    22 ar  
     3    25     5 ar  
     4    22    18 ar  
     5    12     5 1   
     6     5    24 ar  
     7    18    16 1   
     8    18     2 ar  
     9    16    17 1   
    10    16     1 1   
    11    24     2 ar  
    12    20    17 ar  
    13    20     3 ar  
    14    17    21 ar  
    15     3     4 ar  
    16    21    23 ar  
    17     4    23 ar  
    18     4    11 1   
    19     6    11 1   
    20     6     7 1   
    21    26     7 ar  
    22    26     8 ar  
    23     7    27 ar  
    24    30    33 ar  
    25    30    29 ar  
    26    33    32 ar  
    27    14    35 2   
    28    13     9 1   
    29    13    29 1   
    30     9     8 1   
    31    29    31 ar  
    32     8    28 ar  
    33    32    35 1   
    34    32    34 ar  
    35    35    15 1   
    36    31    34 ar  
    37    27    10 ar  
    38    28    10 ar  
    39     1    36 1   
    40     1    37 1   
    41     1    38 1   
    42     2    39 1   
    43     3    40 1   
    44     6    41 1   
    45     6    42 1   
    46     9    43 1   
    47     9    44 1   
    48    10    45 1   
    49    12    46 1   
    50    14    47 1   
    51    15    48 1   
    52    15    49 1   
    53    19    50 1   
    54    19    51 1   
    55    19    52 1   
    56    20    53 1   
    57    21    54 1   
    58    22    55 1   
    59    23    56 1   
    60    24    57 1   
    61    25    58 1   
    62    26    59 1   
    63    27    60 1   
    64    28    61 1   
    65    30    62 1   
    66    31    63 1   
    67    33    64 1   
    68    34    65 1   
    69    66    15 1   
@<TRIPOS>SUBSTRUCTURE
     1 7Y9         1 TEMP              0 ****  ****    0 ROOT
