@<TRIPOS>MOLECULE
7Y9
   66    69     1     0     0
SMALL
bcc


@<TRIPOS>ATOM
      1 C10          0.0000     0.0000     0.0000 c3         1 7Y9      -0.001600
      2 C13          2.8420    -1.0990    -1.8260 ca         1 7Y9      -0.086000
      3 C15          1.5980     0.1310     3.7730 ca         1 7Y9      -0.174000
      4 C17          2.9550     0.0000     4.0290 ca         1 7Y9       0.138100
      5 C20          2.9490    -3.4850    -2.0250 ca         1 7Y9       0.122100
      6 C21          4.8170    -0.1430     5.5000 c3         1 7Y9       0.260700
      7 C22          5.1310    -0.1250     6.9740 ca         1 7Y9      -0.106300
      8 C24          5.6770     1.0880     8.9630 ca         1 7Y9      -0.141300
      9 C26          5.9670     2.3950     9.6580 c3         1 7Y9       0.266700
     10 C28          5.4380    -1.2930     9.0410 ca         1 7Y9      -0.101000
     11 O01          3.4080    -0.0040     5.3110 os         1 7Y9      -0.305900
     12 O02          3.3970    -4.5930    -2.6730 oh         1 7Y9      -0.498100
     13 O03          7.3680     2.6660     9.5960 os         1 7Y9      -0.278900
     14 N04         10.4170     7.7120    11.9810 n2         1 7Y9      -0.476100
     15 N05          8.2490     8.2480    12.6170 nz         1 7Y9       0.123400
     16 C06          1.5300     0.0000     0.0000 c3         1 7Y9       0.056600
     17 C07          2.0320    -0.0040     1.4220 ca         1 7Y9      -0.114300
     18 C08          2.0320    -1.2290    -0.7130 ca         1 7Y9      -0.100300
     19 C09          2.0400     1.2500    -0.7180 c3         1 7Y9      -0.001600
     20 C11          1.1400     0.1290     2.4690 ca         1 7Y9      -0.060000
     21 C12          3.3860    -0.1240     1.6740 ca         1 7Y9      -0.060000
     22 C14          1.6820    -2.4860    -0.2530 ca         1 7Y9      -0.086000
     23 C16          3.8490    -0.1280     2.9760 ca         1 7Y9      -0.174000
     24 C18          3.2980    -2.2230    -2.4850 ca         1 7Y9      -0.135000
     25 C19          2.1410    -3.6130    -0.9050 ca         1 7Y9      -0.135000
     26 C23          5.3900     1.0730     7.6110 ca         1 7Y9      -0.048000
     27 C25          5.1510    -1.3080     7.6900 ca         1 7Y9      -0.049000
     28 C27          5.7040    -0.0950     9.6780 ca         1 7Y9      -0.064000
     29 C29          7.8010     3.8150    10.1790 ca         1 7Y9       0.224100
     30 C30          6.8900     4.6590    10.8030 ca         1 7Y9      -0.166000
     31 C31          9.1510     4.1390    10.1540 ca         1 7Y9      -0.166000
     32 C32          8.6810     6.1560    11.3680 ca         1 7Y9      -0.258900
     33 C33          7.3250     5.8250    11.3950 ca         1 7Y9      -0.010500
     34 C34          9.5920     5.3030    10.7450 ca         1 7Y9      -0.010500
     35 C35          9.1500     7.4070    12.0020 ce         1 7Y9       0.245800
     36 H1          -0.3610     0.9400     0.3990 hc         1 7Y9       0.011867
     37 H2          -0.3610    -0.8160     0.6140 hc         1 7Y9       0.011867
     38 H3          -0.3610    -0.1240    -1.0140 hc         1 7Y9       0.011867
     39 H4           3.1140    -0.1140    -2.1850 ha         1 7Y9       0.115000
     40 H5           0.8980     0.2350     4.5930 ha         1 7Y9       0.116000
     41 H6           5.1480    -1.0810     5.0720 h1         1 7Y9       0.007700
     42 H7           5.3300     0.6780     5.0130 h1         1 7Y9       0.007700
     43 H8           5.4230     3.1930     9.1680 h1         1 7Y9       0.007200
     44 H9           5.6570     2.3290    10.6940 h1         1 7Y9       0.007200
     45 H10          5.4560    -2.2190     9.6020 ha         1 7Y9       0.113000
     46 H11          4.2210    -4.8610    -2.3020 ho         1 7Y9       0.401000
     47 H12         10.7360     8.5580    12.4100 hn         1 7Y9       0.335400
     48 H13          7.7980     7.7640    13.3680 hn         1 7Y9       0.225467
     49 H14          8.7310     9.0470    12.9780 hn         1 7Y9       0.225467
     50 H15          3.1210     1.2200    -0.7720 hc         1 7Y9       0.011867
     51 H16          1.6290     1.2850    -1.7200 hc         1 7Y9       0.011867
     52 H17          1.7300     2.1330    -0.1700 hc         1 7Y9       0.011867
     53 H18          0.0810     0.2310     2.2670 ha         1 7Y9       0.117000
     54 H19          4.0840    -0.2240     0.8510 ha         1 7Y9       0.117000
     55 H20          1.0490    -2.5860     0.6210 ha         1 7Y9       0.115000
     56 H21          4.9090    -0.2260     3.1740 ha         1 7Y9       0.116000
     57 H22          3.9320    -2.1200    -3.3570 ha         1 7Y9       0.114500
     58 H23          1.8660    -4.5970    -0.5450 ha         1 7Y9       0.114500
     59 H24          5.3810     1.9990     7.0490 ha         1 7Y9       0.109000
     60 H25          4.9430    -2.2470     7.1920 ha         1 7Y9       0.115000
     61 H26          5.9280    -0.0820    10.7380 ha         1 7Y9       0.104000
     62 H27          5.8400     4.3930    10.8370 ha         1 7Y9       0.142000
     63 H28          9.8580     3.4750     9.6710 ha         1 7Y9       0.142000
     64 H29          6.6210     6.4660    11.9110 ha         1 7Y9       0.103500
     65 H30         10.6390     5.5750    10.6900 ha         1 7Y9       0.103500
     66 H053         7.5860     8.5780    11.9430 hn         1 7Y9       0.225467
@<TRIPOS>BOND
     1     1    16 1   
     2     1    36 1   
     3     1    37 1   
     4     1    38 1   
     5     2    18 ar  
     6     2    24 ar  
     7     2    39 1   
     8     3     4 ar  
     9     3    20 ar  
    10     3    40 1   
    11     4    11 1   
    12     4    23 ar  
    13     5    12 1   
    14     5    24 ar  
    15     5    25 ar  
    16     6     7 1   
    17     6    11 1   
    18     6    41 1   
    19     6    42 1   
    20     7    26 ar  
    21     7    27 ar  
    22     8     9 1   
    23     8    26 ar  
    24     8    28 ar  
    25     9    13 1   
    26     9    43 1   
    27     9    44 1   
    28    10    27 ar  
    29    10    28 ar  
    30    10    45 1   
    31    12    46 1   
    32    13    29 1   
    33    14    35 2   
    34    14    47 1   
    35    15    35 1   
    36    15    48 1   
    37    15    49 1   
    38    15    66 1   
    39    16    17 1   
    40    16    18 1   
    41    16    19 1   
    42    17    20 ar  
    43    17    21 ar  
    44    18    22 ar  
    45    19    50 1   
    46    19    51 1   
    47    19    52 1   
    48    20    53 1   
    49    21    23 ar  
    50    21    54 1   
    51    22    25 ar  
    52    22    55 1   
    53    23    56 1   
    54    24    57 1   
    55    25    58 1   
    56    26    59 1   
    57    27    60 1   
    58    28    61 1   
    59    29    30 ar  
    60    29    31 ar  
    61    30    33 ar  
    62    30    62 1   
    63    31    34 ar  
    64    31    63 1   
    65    32    33 ar  
    66    32    34 ar  
    67    32    35 1   
    68    33    64 1   
    69    34    65 1   
@<TRIPOS>SUBSTRUCTURE
     1 7Y9         1 TEMP              0 ****  ****    0 ROOT
