@<TRIPOS>MOLECULE
molecule
   47    50     1     0     0
SMALL
bcc


@<TRIPOS>ATOM
      1 N3           0.0000     0.0000     0.0000 na         1 7YA       0.136300
      2 C4           3.1620     0.0000     1.8100 cc         1 7YA       0.046700
      3 C7           0.6010    -0.0010     2.1200 cd         1 7YA       0.358200
      4 C8           4.1810    -0.7120     1.2660 cd         1 7YA      -0.176200
      5 C10          5.3750    -0.4160     2.0540 ca         1 7YA      -0.228100
      6 C20          5.9260     0.9400     3.9630 ca         1 7YA      -0.269300
      7 C21         -2.8400    -0.6680    -2.2420 ca         1 7YA      -0.108300
      8 C22          6.7070    -0.8220     2.0060 ca         1 7YA       0.468200
      9 C24         -0.4320     0.7010    -2.2720 ca         1 7YA      -0.128000
     10 C26         -1.2450     0.7050    -3.3900 ca         1 7YA      -0.118000
     11 C28         -7.3060     0.3510     0.2740 c3         1 7YA      -0.101100
     12 C1           1.7660     0.0000     1.3230 cd         1 7YA      -0.275100
     13 C2           1.3580     0.0000     0.0000 cc         1 7YA       0.138800
     14 N5          -0.4380    -0.0010     1.3300 nc         1 7YA      -0.490800
     15 N6           3.6250     0.7180     2.8890 na         1 7YA      -0.173400
     16 C9          -0.8220     0.0050    -1.1350 ca         1 7YA       0.013800
     17 C11          4.9680     0.4900     3.0580 ca         1 7YA      -0.011200
     18 C12         -6.4800    -0.9550    -1.6650 c          1 7YA       0.637100
     19 N13         -5.2120    -0.5090    -1.7590 ns         1 7YA      -0.590900
     20 C14         -2.0320    -0.6750    -1.1220 ca         1 7YA      -0.102000
     21 O15          2.1640     0.0010    -1.0900 oh         1 7YA      -0.478100
     22 O16         -6.7450    -2.1000    -1.9670 o          1 7YA      -0.578100
     23 N17          7.5720    -0.3630     2.8880 nb         1 7YA      -0.711000
     24 C18         -7.5700    -0.0330    -1.1830 c3         1 7YA       0.077100
     25 O23         -8.8320    -0.6950    -1.2800 oh         1 7YA      -0.568800
     26 C25          7.2220     0.4870     3.8400 ca         1 7YA       0.428200
     27 C27         -2.4460     0.0210    -3.3750 ca         1 7YA      -0.115000
     28 H1           0.5740    -0.0020     3.2030 h4         1 7YA       0.056100
     29 H2           4.1580    -1.2350     0.3180 ha         1 7YA       0.151000
     30 H3           5.6570     1.6360     4.7480 ha         1 7YA       0.132000
     31 H4           7.0330    -1.5170     1.2410 h4         1 7YA       0.023100
     32 H5           0.5090     1.2370    -2.2840 ha         1 7YA       0.158000
     33 H6          -0.9410     1.2450    -4.2780 ha         1 7YA       0.143000
     34 H8          -6.8710    -0.4930     0.7970 hc         1 7YA       0.050033
     35 H9          -8.2390     0.6270     0.7500 hc         1 7YA       0.050033
     36 H11          3.0680     1.3220     3.4600 hn         1 7YA       0.299700
     37 H12         -5.0010     0.4460    -1.5460 hn         1 7YA       0.316500
     38 H13         -2.3250    -1.2420    -0.2470 ha         1 7YA       0.159000
     39 H14         -7.5830     0.8610    -1.7940 h1         1 7YA       0.038700
     40 H17         -9.3800    -0.2400    -1.8980 ho         1 7YA       0.404000
     41 H18          7.9720     0.8350     4.5400 h4         1 7YA       0.022100
     42 H19         -3.0810     0.0250    -4.2520 ha         1 7YA       0.140000
     43 H10          2.3530    -0.8870    -1.3420 ho         1 7YA       0.435000
     44 C19         -4.1530    -1.4060    -2.2280 c3         1 7YA       0.163300
     45 H7          -6.6210     1.1890     0.3090 hc         1 7YA       0.050033
     46 H15         -4.0810    -2.2590    -1.5640 h1         1 7YA       0.062200
     47 H16         -4.3850    -1.7480    -3.2300 h1         1 7YA       0.062200
@<TRIPOS>BOND
     1    27    10 ar  
     2    27     7 ar  
     3    44    19 1   
     4    44     7 1   
     5    10     9 ar  
     6    19    18 1   
     7     7    20 ar  
     8    25    24 1   
     9    18    22 2   
    10    18    24 1   
    11    11    24 1   
    12     9    16 ar  
    13    20    16 ar  
    14    16     1 1   
    15     1    13 1   
    16     1    14 1   
    17    21    13 1   
    18    13    12 2   
    19    14     3 2   
    20    12     3 1   
    21    12     2 1   
    22    15     2 1   
    23    15    17 1   
    24     2     4 2   
    25    17     6 ar  
    26    17     5 ar  
    27     6    26 ar  
    28     4     5 1   
    29     5     8 ar  
    30    26    23 ar  
    31     8    23 ar  
    32     3    28 1   
    33     4    29 1   
    34     6    30 1   
    35     8    31 1   
    36     9    32 1   
    37    10    33 1   
    38    11    45 1   
    39    11    34 1   
    40    11    35 1   
    41    15    36 1   
    42    19    37 1   
    43    20    38 1   
    44    24    39 1   
    45    44    46 1   
    46    44    47 1   
    47    25    40 1   
    48    26    41 1   
    49    27    42 1   
    50    21    43 1   
@<TRIPOS>SUBSTRUCTURE
     1 7YA         1 TEMP              0 ****  ****    0 ROOT
