@<TRIPOS>MOLECULE
7YA
   47    50     1     0     0
SMALL
bcc


@<TRIPOS>ATOM
      1 N3           0.0000     0.0000     0.0000 na         1 7YA       0.603300
      2 C4           3.1620     0.0000     1.8100 cc         1 7YA      -0.128300
      3 C7           0.6010    -0.0010     2.1200 cc         1 7YA       0.417200
      4 C8           4.1810    -0.7120     1.2660 cd         1 7YA      -0.144200
      5 C10          5.3750    -0.4160     2.0540 ca         1 7YA      -0.225100
      6 C20          5.9260     0.9400     3.9630 ca         1 7YA      -0.225300
      7 C21         -2.8400    -0.6680    -2.2420 ca         1 7YA      -0.116300
      8 C22          6.7070    -0.8220     2.0060 ca         1 7YA       0.464200
      9 C24         -0.4320     0.7010    -2.2720 ca         1 7YA      -0.094000
     10 C26         -1.2450     0.7050    -3.3900 ca         1 7YA      -0.090000
     11 C28         -7.3060     0.3510     0.2740 c3         1 7YA      -0.011100
     12 C1           1.7660     0.0000     1.3230 cc         1 7YA      -0.286100
     13 C2           1.3580     0.0000     0.0000 cd         1 7YA      -0.016200
     14 N5          -0.4380    -0.0010     1.3300 nd         1 7YA      -0.649800
     15 N6           3.6250     0.7180     2.8890 na         1 7YA       0.370600
     16 C9          -0.8220     0.0050    -1.1350 ca         1 7YA      -0.158200
     17 C11          4.9680     0.4900     3.0580 ca         1 7YA      -0.207200
     18 C12         -6.4800    -0.9550    -1.6650 c          1 7YA       0.545100
     19 N13         -5.2120    -0.5090    -1.7590 ns         1 7YA      -0.206900
     20 C14         -2.0320    -0.6750    -1.1220 ca         1 7YA      -0.062000
     21 O15          2.1640     0.0010    -1.0900 oh         1 7YA      -0.456100
     22 O16         -6.7450    -2.1000    -1.9670 o          1 7YA      -0.615100
     23 N17          7.5720    -0.3630     2.8880 nb         1 7YA      -0.612000
     24 C18         -7.5700    -0.0330    -1.1830 c3         1 7YA       0.127100
     25 O23         -8.8320    -0.6950    -1.2800 oh         1 7YA      -0.548800
     26 C25          7.2220     0.4870     3.8400 ca         1 7YA       0.412200
     27 C27         -2.4460     0.0210    -3.3750 ca         1 7YA      -0.077000
     28 H1           0.5740    -0.0020     3.2030 h4         1 7YA       0.006100
     29 H2           4.1580    -1.2350     0.3180 ha         1 7YA       0.126000
     30 H3           5.6570     1.6360     4.7480 ha         1 7YA       0.108000
     31 H4           7.0330    -1.5170     1.2410 h4         1 7YA      -0.023900
     32 H5           0.5090     1.2370    -2.2840 ha         1 7YA       0.131000
     33 H6          -0.9410     1.2450    -4.2780 ha         1 7YA       0.112000
     34 H8          -6.8710    -0.4930     0.7970 hc         1 7YA       0.014367
     35 H9          -8.2390     0.6270     0.7500 hc         1 7YA       0.014367
     36 H11          3.0680     1.3220     3.4600 hn         1 7YA       0.116700
     37 H12         -5.0010     0.4460    -1.5460 hn         1 7YA       0.177500
     38 H13         -2.3250    -1.2420    -0.2470 ha         1 7YA       0.132000
     39 H14         -7.5830     0.8610    -1.7940 h1         1 7YA      -0.000300
     40 H17         -9.3800    -0.2400    -1.8980 ho         1 7YA       0.387000
     41 H18          7.9720     0.8350     4.5400 h4         1 7YA      -0.023900
     42 H19         -3.0810     0.0250    -4.2520 ha         1 7YA       0.112000
     43 H10          2.3530    -0.8870    -1.3420 ho         1 7YA       0.412000
     44 C19         -4.1530    -1.4060    -2.2280 c3         1 7YA       0.114300
     45 H7          -6.6210     1.1890     0.3090 hc         1 7YA       0.014367
     46 H15         -4.0810    -2.2590    -1.5640 h1         1 7YA       0.031700
     47 H16         -4.3850    -1.7480    -3.2300 h1         1 7YA       0.031700
@<TRIPOS>BOND
     1     1    13 1   
     2     1    14 1   
     3     1    16 1   
     4     2     4 2   
     5     2    12 1   
     6     2    15 1   
     7     3    12 1   
     8     3    14 2   
     9     3    28 1   
    10     4     5 1   
    11     4    29 1   
    12     5     8 ar  
    13     5    17 ar  
    14     6    17 ar  
    15     6    26 ar  
    16     6    30 1   
    17     7    20 ar  
    18     7    27 ar  
    19     7    44 1   
    20     8    23 ar  
    21     8    31 1   
    22     9    10 ar  
    23     9    16 ar  
    24     9    32 1   
    25    10    27 ar  
    26    10    33 1   
    27    11    24 1   
    28    11    34 1   
    29    11    35 1   
    30    11    45 1   
    31    12    13 2   
    32    13    21 1   
    33    15    17 1   
    34    15    36 1   
    35    16    20 ar  
    36    18    19 1   
    37    18    22 2   
    38    18    24 1   
    39    19    37 1   
    40    19    44 1   
    41    20    38 1   
    42    21    43 1   
    43    23    26 ar  
    44    24    25 1   
    45    24    39 1   
    46    25    40 1   
    47    26    41 1   
    48    27    42 1   
    49    44    46 1   
    50    44    47 1   
@<TRIPOS>SUBSTRUCTURE
     1 7YA         1 TEMP              0 ****  ****    0 ROOT
