@<TRIPOS>MOLECULE
molecule
   54    56     1     0     0
SMALL
bcc


@<TRIPOS>ATOM
      1 C1           0.0000     0.0000     0.0000 c3         1 7YG       0.149600
      2 N2           1.4690     0.0000     0.0000 n3         1 7YG      -0.733600
      3 C3           1.9960     0.0000     1.3720 c3         1 7YG       0.149600
      4 C4           1.9960    -1.1380    -0.7660 c3         1 7YG       0.154800
      5 C5           1.6310    -0.9700    -2.2420 c3         1 7YG       0.230800
      6 N6           2.1570    -2.1050    -3.0070 n7         1 7YG      -0.918100
      7 S7           1.6110    -2.3910    -4.5430 sy         1 7YG       1.427200
      8 O8           2.3270    -3.5220    -5.0190 o          1 7YG      -0.636300
      9 O9           0.1930    -2.3380    -4.4830 o          1 7YG      -0.636300
     10 C10          2.1180    -1.0270    -5.5390 ca         1 7YG      -0.314500
     11 C11          3.3400    -1.0630    -6.1860 ca         1 7YG      -0.026000
     12 C12          3.7420     0.0020    -6.9660 ca         1 7YG      -0.137500
     13 C13          2.9130     1.1140    -7.1030 cp         1 7YG      -0.071500
     14 C14          1.6820     1.1440    -6.4500 ca         1 7YG      -0.137500
     15 C15          1.2880     0.0720    -5.6750 ca         1 7YG      -0.026000
     16 C16          3.3390     2.2620    -7.9400 cp         1 7YG       0.260500
     17 C17          4.5260     2.1860    -8.6770 ca         1 7YG       0.404900
     18 N18          4.9100     3.2030    -9.4230 nb         1 7YG      -0.738000
     19 C19          4.1710     4.3060    -9.4790 ca         1 7YG       0.647900
     20 C20          2.9780     4.3860    -8.7400 ca         1 7YG       0.156500
     21 N21          2.5930     3.3560    -7.9930 nb         1 7YG      -0.599000
     22 C22          2.1510     5.6080    -8.7970 c          1 7YG       0.603600
     23 O23          2.4510     6.5100    -9.5560 o          1 7YG      -0.628100
     24 N24          1.0650     5.7260    -8.0090 ns         1 7YG      -0.447100
     25 C25          0.2200     6.8330    -8.1410 ca         1 7YG      -0.071700
     26 C26          0.0370     7.4370    -9.3820 ca         1 7YG      -0.097000
     27 C27         -0.8090     8.5310    -9.4630 ca         1 7YG      -0.236300
     28 C28         -1.4380     8.9840    -8.3170 ca         1 7YG       0.400200
     29 N29         -1.2420     8.3900    -7.1560 nb         1 7YG      -0.671000
     30 C30         -0.4510     7.3430    -7.0370 ca         1 7YG       0.392200
     31 N31          4.5730     5.3710   -10.2600 nv         1 7YG      -0.974500
     32 H11C        -0.3610    -1.0210     0.0050 h1         1 7YG       0.035033
     33 H12C        -0.3610     0.5060    -0.8870 h1         1 7YG       0.035033
     34 H13C        -0.3610     0.5150     0.8820 h1         1 7YG       0.035033
     35 H31C         3.0780     0.0320     1.3430 h1         1 7YG       0.035033
     36 H32C         1.6750    -0.9000     1.8820 h1         1 7YG       0.035033
     37 H33C         1.6230     0.8680     1.9020 h1         1 7YG       0.035033
     38 H41C         1.5640    -2.0570    -0.3890 h1         1 7YG       0.039700
     39 H42C         3.0730    -1.1750    -0.6620 h1         1 7YG       0.039700
     40 H51C         2.0620    -0.0510    -2.6190 h1         1 7YG       0.055700
     41 H52C         0.5530    -0.9330    -2.3460 h1         1 7YG       0.055700
     42 H6           2.8500    -2.7030    -2.6020 hn         1 7YG       0.454800
     43 H11          3.9840    -1.9280    -6.0780 ha         1 7YG       0.152500
     44 H15          0.3320     0.0940    -5.1670 ha         1 7YG       0.152500
     45 H12          4.7000    -0.0260    -7.4720 ha         1 7YG       0.143000
     46 H14          1.0330     2.0050    -6.5540 ha         1 7YG       0.143000
     47 H17          5.1320     1.2890    -8.6340 h4         1 7YG       0.039100
     48 H311         4.0410     6.2190   -10.2620 hn         1 7YG       0.465300
     49 H312         5.4150     5.3080   -10.7970 hn         1 7YG       0.465300
     50 H24          0.8640     5.0220    -7.3260 hn         1 7YG       0.348500
     51 H26          0.5420     7.0600   -10.2630 ha         1 7YG       0.166000
     52 H30         -0.3150     6.8810    -6.0670 h4         1 7YG       0.023100
     53 H27         -0.9760     9.0260   -10.4120 ha         1 7YG       0.142000
     54 H28         -2.0980     9.8410    -8.3740 h4         1 7YG       0.025100
@<TRIPOS>BOND
     1     1     2 1   
     2     2     3 1   
     3     2     4 1   
     4     4     5 1   
     5     5     6 1   
     6     6     7 1   
     7     7     8 2   
     8     7     9 2   
     9     7    10 1   
    10    10    11 ar  
    11    10    15 ar  
    12    11    12 ar  
    13    12    13 ar  
    14    13    14 ar  
    15    13    16 1   
    16    14    15 ar  
    17    16    17 ar  
    18    16    21 ar  
    19    17    18 ar  
    20    18    19 ar  
    21    19    20 ar  
    22    19    31 1   
    23    20    21 ar  
    24    20    22 1   
    25    22    23 2   
    26    22    24 1   
    27    24    25 1   
    28    25    26 ar  
    29    25    30 ar  
    30    26    27 ar  
    31    27    28 ar  
    32    28    29 ar  
    33    29    30 ar  
    34     1    32 1   
    35     1    33 1   
    36     1    34 1   
    37     3    35 1   
    38     3    36 1   
    39     3    37 1   
    40     4    38 1   
    41     4    39 1   
    42     5    40 1   
    43     5    41 1   
    44     6    42 1   
    45    11    43 1   
    46    15    44 1   
    47    12    45 1   
    48    14    46 1   
    49    17    47 1   
    50    31    48 1   
    51    31    49 1   
    52    24    50 1   
    53    26    51 1   
    54    30    52 1   
    55    27    53 1   
    56    28    54 1   
@<TRIPOS>SUBSTRUCTURE
     1 7YG         1 TEMP              0 ****  ****    0 ROOT
