@<TRIPOS>MOLECULE
molecule
   53    56     1     0     0
SMALL
bcc


@<TRIPOS>ATOM
      1 N3           0.0000     0.0000     0.0000 na         1 7YJ       0.134300
      2 C4           3.1630     0.0000     1.8090 cc         1 7YJ       0.045700
      3 C7           0.6040    -0.0010     2.1190 cd         1 7YJ       0.357200
      4 C8           4.1820    -0.7120     1.2630 cd         1 7YJ      -0.175200
      5 C10          5.3760    -0.4160     2.0520 ca         1 7YJ      -0.229100
      6 C15         -2.0270    -0.6850    -1.1240 ca         1 7YJ      -0.104000
      7 C20          5.9290     0.9390     3.9600 ca         1 7YJ      -0.269300
      8 C21         -2.8380    -0.6730    -2.2430 ca         1 7YJ      -0.108300
      9 C22          6.7090    -0.8230     2.0040 ca         1 7YJ       0.468200
     10 C26          7.2250     0.4850     3.8380 ca         1 7YJ       0.428200
     11 C28         -2.4510     0.0250    -3.3720 ca         1 7YJ      -0.113000
     12 C1           1.7670     0.0000     1.3210 cd         1 7YJ      -0.274100
     13 C2           1.3590     0.0000     0.0000 cc         1 7YJ       0.139800
     14 N5          -0.4360    -0.0010     1.3300 nc         1 7YJ      -0.492800
     15 N6           3.6270     0.7200     2.8860 na         1 7YJ      -0.173400
     16 C9          -0.8220     0.0040    -1.1350 ca         1 7YJ       0.012800
     17 C11          4.9700     0.4890     3.0560 ca         1 7YJ      -0.012200
     18 C12         -6.4750    -0.9940    -1.6570 c          1 7YJ       0.627100
     19 N13         -5.2100    -0.5370    -1.7510 ns         1 7YJ      -0.589900
     20 C14         -7.5700    -0.0840    -1.1630 c3         1 7YJ       0.082100
     21 O16          2.1630    -0.0000    -1.0920 oh         1 7YJ      -0.476100
     22 O17         -6.7310    -2.1380    -1.9690 o          1 7YJ      -0.587100
     23 N18          7.5730    -0.3650     2.8860 nb         1 7YJ      -0.711000
     24 C23         -7.7680     1.0610    -2.1560 c3         1 7YJ      -0.066700
     25 O24         -8.7860    -0.8260    -1.0420 oh         1 7YJ      -0.570800
     26 C25         -0.4330     0.7000    -2.2730 ca         1 7YJ      -0.128000
     27 C27         -1.2520     0.7130    -3.3850 ca         1 7YJ      -0.117000
     28 C29         -8.2760     0.5010    -3.4860 c3         1 7YJ      -0.087100
     29 C30         -8.7900     2.0520    -1.5950 c3         1 7YJ      -0.087100
     30 H1           0.5780    -0.0010     3.2020 h4         1 7YJ       0.056100
     31 H2           4.0860    -1.4990     0.5250 ha         1 7YJ       0.152000
     32 H3          -2.3310    -1.2310    -0.2400 ha         1 7YJ       0.158000
     33 H4           5.6610     1.6350     4.7460 ha         1 7YJ       0.132000
     34 H5           7.0350    -1.5190     1.2390 h4         1 7YJ       0.023100
     35 H6           7.9750     0.8310     4.5380 h4         1 7YJ       0.022100
     36 H7          -3.0900     0.0340    -4.2470 ha         1 7YJ       0.142000
     37 H9           3.0700     1.3240     3.4570 hn         1 7YJ       0.299700
     38 H10         -4.9920     0.3930    -1.4550 hn         1 7YJ       0.317500
     39 H11         -7.2960     0.3190    -0.1950 h1         1 7YJ       0.042700
     40 H12         -4.3790    -1.7560    -3.2350 h1         1 7YJ       0.062200
     41 H13         -4.0650    -2.2790    -1.5740 h1         1 7YJ       0.062200
     42 H14         -6.8240     1.5680    -2.3140 hc         1 7YJ       0.047700
     43 H15         -8.8240    -1.2300    -0.1910 ho         1 7YJ       0.408000
     44 H16          0.5070     1.2390    -2.2840 ha         1 7YJ       0.159000
     45 H17         -0.9500     1.2570    -4.2720 ha         1 7YJ       0.143000
     46 H18         -7.5000    -0.0990    -3.9450 hc         1 7YJ       0.042200
     47 H19         -8.5360     1.3200    -4.1470 hc         1 7YJ       0.042200
     48 H20         -9.1510    -0.1130    -3.3100 hc         1 7YJ       0.042200
     49 H21         -9.7620     1.5770    -1.5420 hc         1 7YJ       0.042200
     50 H22         -8.8470     2.9180    -2.2440 hc         1 7YJ       0.042200
     51 H23         -8.4860     2.3630    -0.6040 hc         1 7YJ       0.042200
     52 H8           2.3220    -0.8880    -1.3660 ho         1 7YJ       0.435000
     53 C19         -4.1460    -1.4220    -2.2310 c3         1 7YJ       0.162300
@<TRIPOS>BOND
     1    11    27 ar
     2    11     8 ar
     3    53     8 1
     4    53    19 1
     5    27    26 ar
     6     8     6 ar
     7    22    18 2
     8    19    18 1
     9    18    20 1
    10    29    24 1
    11    24    20 1
    12    24    28 1
    13    26    16 ar
    14     6    16 ar
    15    20    25 1
    16    16     1 1
    17     1    13 1
    18     1    14 1
    19    21    13 1
    20    13    12 2
    21    14     3 2
    22    12     3 1
    23    12     2 1
    24    15     2 1
    25    15    17 1
    26     2     4 2
    27    17     7 ar
    28    17     5 ar
    29     7    10 ar
    30     4     5 1
    31     5     9 ar
    32    10    23 ar
    33     9    23 ar
    34     3    30 1
    35     4    31 1
    36     6    32 1
    37     7    33 1
    38     9    34 1
    39    10    35 1
    40    11    36 1
    41    15    37 1
    42    19    38 1
    43    20    39 1
    44    53    40 1
    45    53    41 1
    46    24    42 1
    47    25    43 1
    48    26    44 1
    49    27    45 1
    50    28    46 1
    51    28    47 1
    52    28    48 1
    53    29    49 1
    54    29    50 1
    55    29    51 1
    56    21    52 1
@<TRIPOS>SUBSTRUCTURE
     1 7YJ         1 TEMP              0 ****  ****    0 ROOT
