@<TRIPOS>MOLECULE
7YJ
   53    56     1     0     0
SMALL
bcc


@<TRIPOS>ATOM
      1 N3           0.0000     0.0000     0.0000 na         1 7YJ       0.600300
      2 C4           3.1630     0.0000     1.8090 cc         1 7YJ      -0.129300
      3 C7           0.6040    -0.0010     2.1190 cc         1 7YJ       0.416200
      4 C8           4.1820    -0.7120     1.2630 cd         1 7YJ      -0.143200
      5 C10          5.3760    -0.4160     2.0520 ca         1 7YJ      -0.225100
      6 C15         -2.0270    -0.6850    -1.1240 ca         1 7YJ      -0.065000
      7 C20          5.9290     0.9390     3.9600 ca         1 7YJ      -0.225300
      8 C21         -2.8380    -0.6730    -2.2430 ca         1 7YJ      -0.117300
      9 C22          6.7090    -0.8230     2.0040 ca         1 7YJ       0.464200
     10 C26          7.2250     0.4850     3.8380 ca         1 7YJ       0.412200
     11 C28         -2.4510     0.0250    -3.3720 ca         1 7YJ      -0.075000
     12 C1           1.7670     0.0000     1.3210 cc         1 7YJ      -0.285100
     13 C2           1.3590     0.0000     0.0000 cd         1 7YJ      -0.015200
     14 N5          -0.4360    -0.0010     1.3300 nd         1 7YJ      -0.651800
     15 N6           3.6270     0.7200     2.8860 na         1 7YJ       0.370600
     16 C9          -0.8220     0.0040    -1.1350 ca         1 7YJ      -0.158200
     17 C11          4.9700     0.4890     3.0560 ca         1 7YJ      -0.208200
     18 C12         -6.4750    -0.9940    -1.6570 c          1 7YJ       0.538100
     19 N13         -5.2100    -0.5370    -1.7510 ns         1 7YJ      -0.205900
     20 C14         -7.5700    -0.0840    -1.1630 c3         1 7YJ       0.128100
     21 O16          2.1630    -0.0000    -1.0920 oh         1 7YJ      -0.453100
     22 O17         -6.7310    -2.1380    -1.9690 o          1 7YJ      -0.623100
     23 N18          7.5730    -0.3650     2.8860 nb         1 7YJ      -0.611000
     24 C23         -7.7680     1.0610    -2.1560 c3         1 7YJ      -0.052700
     25 O24         -8.7860    -0.8260    -1.0420 oh         1 7YJ      -0.551800
     26 C25         -0.4330     0.7000    -2.2730 ca         1 7YJ      -0.094000
     27 C27         -1.2520     0.7130    -3.3850 ca         1 7YJ      -0.089000
     28 C29         -8.2760     0.5010    -3.4860 c3         1 7YJ       0.003900
     29 C30         -8.7900     2.0520    -1.5950 c3         1 7YJ       0.003900
     30 H1           0.5780    -0.0010     3.2020 h4         1 7YJ       0.006100
     31 H2           4.0860    -1.4990     0.5250 ha         1 7YJ       0.126000
     32 H3          -2.3310    -1.2310    -0.2400 ha         1 7YJ       0.131000
     33 H4           5.6610     1.6350     4.7460 ha         1 7YJ       0.108000
     34 H5           7.0350    -1.5190     1.2390 h4         1 7YJ      -0.023900
     35 H6           7.9750     0.8310     4.5380 h4         1 7YJ      -0.022900
     36 H7          -3.0900     0.0340    -4.2470 ha         1 7YJ       0.113000
     37 H9           3.0700     1.3240     3.4570 hn         1 7YJ       0.116700
     38 H10         -4.9920     0.3930    -1.4550 hn         1 7YJ       0.179500
     39 H11         -7.2960     0.3190    -0.1950 h1         1 7YJ       0.007700
     40 H12         -4.3790    -1.7560    -3.2350 h1         1 7YJ       0.031700
     41 H13         -4.0650    -2.2790    -1.5740 h1         1 7YJ       0.031700
     42 H14         -6.8240     1.5680    -2.3140 hc         1 7YJ       0.020700
     43 H15         -8.8240    -1.2300    -0.1910 ho         1 7YJ       0.392000
     44 H16          0.5070     1.2390    -2.2840 ha         1 7YJ       0.131000
     45 H17         -0.9500     1.2570    -4.2720 ha         1 7YJ       0.112000
     46 H18         -7.5000    -0.0990    -3.9450 hc         1 7YJ       0.009867
     47 H19         -8.5360     1.3200    -4.1470 hc         1 7YJ       0.009867
     48 H20         -9.1510    -0.1130    -3.3100 hc         1 7YJ       0.009867
     49 H21         -9.7620     1.5770    -1.5420 hc         1 7YJ       0.009867
     50 H22         -8.8470     2.9180    -2.2440 hc         1 7YJ       0.009867
     51 H23         -8.4860     2.3630    -0.6040 hc         1 7YJ       0.009867
     52 H8           2.3220    -0.8880    -1.3660 ho         1 7YJ       0.411000
     53 C19         -4.1460    -1.4220    -2.2310 c3         1 7YJ       0.113300
@<TRIPOS>BOND
     1     1    13 1   
     2     1    14 1   
     3     1    16 1   
     4     2     4 2   
     5     2    12 1   
     6     2    15 1   
     7     3    12 1   
     8     3    14 2   
     9     3    30 1   
    10     4     5 1   
    11     4    31 1   
    12     5     9 ar  
    13     5    17 ar  
    14     6     8 ar  
    15     6    16 ar  
    16     6    32 1   
    17     7    10 ar  
    18     7    17 ar  
    19     7    33 1   
    20     8    11 ar  
    21     8    53 1   
    22     9    23 ar  
    23     9    34 1   
    24    10    23 ar  
    25    10    35 1   
    26    11    27 ar  
    27    11    36 1   
    28    12    13 2   
    29    13    21 1   
    30    15    17 1   
    31    15    37 1   
    32    16    26 ar  
    33    18    19 1   
    34    18    20 1   
    35    18    22 2   
    36    19    38 1   
    37    19    53 1   
    38    20    24 1   
    39    20    25 1   
    40    20    39 1   
    41    21    52 1   
    42    24    28 1   
    43    24    29 1   
    44    24    42 1   
    45    25    43 1   
    46    26    27 ar  
    47    26    44 1   
    48    27    45 1   
    49    28    46 1   
    50    28    47 1   
    51    28    48 1   
    52    29    49 1   
    53    29    50 1   
    54    29    51 1   
    55    40    53 1   
    56    41    53 1   
@<TRIPOS>SUBSTRUCTURE
     1 7YJ         1 TEMP              0 ****  ****    0 ROOT
