@<TRIPOS>MOLECULE
molecule
   52    53     1     0     0
SMALL
bcc


@<TRIPOS>ATOM
      1 C5           0.0000     0.0000     0.0000 c3         1 7YP       0.159100
      2 C6           8.1270     2.9530    -0.5130 c3         1 7YP       0.134400
      3 C7           4.4100    -0.0290    -4.7650 c          1 7YP       0.463100
      4 C10          5.7820    -0.0270     0.0130 c3         1 7YP      -0.144700
      5 C15          1.5070     0.0000     0.0000 ca         1 7YP      -0.158300
      6 C17          6.6470     4.2270    -2.0780 ca         1 7YP      -0.091000
      7 C20          7.0240     4.2100    -4.4460 ca         1 7YP       0.103100
      8 C21          2.1980     0.0000     1.1980 ca         1 7YP      -0.107000
      9 C22          8.1130     3.3720    -4.2650 ca         1 7YP      -0.162000
     10 C1           7.6110     1.5580    -0.2660 c          1 7YP       0.607100
     11 C2           3.5850    -0.0080    -1.1960 ca         1 7YP       0.141100
     12 C3           4.2760    -0.0130     0.0080 ca         1 7YP      -0.011300
     13 N4           6.2840     1.3280    -0.2270 ns         1 7YP      -0.549900
     14 O8           4.2660    -0.0150    -2.3710 os         1 7YP      -0.256900
     15 C9           7.7370     3.3940    -1.9000 ca         1 7YP      -0.107300
     16 C11          2.1970    -0.0080    -1.1970 ca         1 7YP      -0.210000
     17 O12          8.3900     0.6430    -0.1030 o          1 7YP      -0.540100
     18 O13          5.6110    -0.0290    -4.6040 o          1 7YP      -0.316100
     19 C14          3.5810    -0.0050     1.2010 ca         1 7YP      -0.084000
     20 C16          8.4690     2.9670    -2.9920 ca         1 7YP      -0.091000
     21 C18          3.4900    -0.0220    -3.5710 c3         1 7YP       0.070400
     22 N19          3.8970    -0.0360    -6.0110 nz         1 7YP      -0.680400
     23 C23          6.2880     4.6340    -3.3480 ca         1 7YP      -0.162000
     24 O24          9.5510     2.9620    -0.3940 os         1 7YP      -0.380600
     25 O25          6.6720     4.6110    -5.6960 oh         1 7YP      -0.543100
     26 N27         -0.4900    -1.3840     0.0070 nz         1 7YP      -0.809600
     27 H1          -0.3610     0.5160     0.8820 hx         1 7YP       0.116700
     28 H2          -0.3610     0.5060    -0.8870 hx         1 7YP       0.116700
     29 H3           7.6990     3.6310     0.2150 h1         1 7YP       0.057700
     30 H4           5.8420     0.7510     0.7640 h1         1 7YP       0.195700
     31 H5           6.3620    -0.8410     0.4310 h1         1 7YP       0.195700
     32 H6           6.0730     4.5570    -1.2210 ha         1 7YP       0.148500
     33 H7           1.6550     0.0060     2.1350 ha         1 7YP       0.155000
     34 H8           8.6890     3.0380    -5.1200 ha         1 7YP       0.147000
     35 H9           9.3310     3.9000     1.4280 h1         1 7YP       0.045033
     36 H10         10.9990     3.6940     0.8770 h1         1 7YP       0.045033
     37 H11         10.0900     2.3030     1.4830 h1         1 7YP       0.045033
     38 H12          5.6410     2.0900    -0.3160 hn         1 7YP       0.321500
     39 H13          1.6560    -0.0040    -2.1350 ha         1 7YP       0.119000
     40 H14          4.1190    -0.0050     2.1410 ha         1 7YP       0.180000
     41 H15          9.3200     2.3120    -2.8500 ha         1 7YP       0.148500
     42 H16          2.8650    -0.9070    -3.5920 h1         1 7YP       0.073200
     43 H17          2.8650     0.8620    -3.6020 h1         1 7YP       0.073200
     44 H18          3.3400    -0.8580    -6.1380 hn         1 7YP       0.485467
     45 H19          3.3270     0.7760    -6.1420 hn         1 7YP       0.485467
     46 H20          5.4350     5.2880    -3.4870 ha         1 7YP       0.147000
     47 H21          7.1190     5.4130    -5.9070 ho         1 7YP       0.442000
     48 H22         -0.2090    -1.8420    -0.8370 hn         1 7YP       0.458800
     49 H23         -0.1060    -1.8700     0.7940 hn         1 7YP       0.458800
     50 C26         10.0210     3.2310     0.9280 c3         1 7YP       0.120700
     51 H193         4.6430    -0.0320    -6.6780 hn         1 7YP       0.485467
     52 H273        -1.4890    -1.3840     0.0670 hn         1 7YP       0.458800
@<TRIPOS>BOND
     1    50    24 1
     2    24     2 1
     3     2    10 1
     4     2    15 1
     5    20    15 ar
     6    20     9 ar
     7    10    13 1
     8    10    17 2
     9    13     4 1
    10    15     6 ar
    11     4    12 1
    12     9     7 ar
    13    19    12 ar
    14    19     8 ar
    15    12    11 ar
    16     6    23 ar
    17     7    23 ar
    18     7    25 1
    19     8     5 ar
    20    11    14 1
    21    11    16 ar
    22    14    21 1
    23    22     3 1
    24     5    16 ar
    25     5     1 1
    26     3    21 1
    27     3    18 2
    28    26     1 1
    29     1    27 1
    30     1    28 1
    31     2    29 1
    32     4    30 1
    33     4    31 1
    34     6    32 1
    35     8    33 1
    36     9    34 1
    37    50    35 1
    38    50    36 1
    39    50    37 1
    40    13    38 1
    41    16    39 1
    42    19    40 1
    43    20    41 1
    44    21    42 1
    45    21    43 1
    46    22    44 1
    47    22    45 1
    48    23    46 1
    49    25    47 1
    50    26    48 1
    51    26    49 1
    52    51    22 1
    53    52    26 1
@<TRIPOS>SUBSTRUCTURE
     1 7YP         1 TEMP              0 ****  ****    0 ROOT
