@<TRIPOS>MOLECULE
7YP
   52    54     1     0     0
SMALL
bcc


@<TRIPOS>ATOM
      1 C5           0.0000     0.0000     0.0000 c3         1 7YP      -0.208000
      2 C6           8.1270     2.9530    -0.5130 c3         1 7YP       0.116000
      3 C7           4.4100    -0.0290    -4.7650 c2         1 7YP      -0.008000
      4 C10          5.7820    -0.0270     0.0130 c3         1 7YP      -0.317000
      5 C15          1.5070     0.0000     0.0000 ca         1 7YP      -0.161000
      6 C17          6.6470     4.2270    -2.0780 ca         1 7YP      -0.056000
      7 C20          7.0240     4.2100    -4.4460 ca         1 7YP       0.076000
      8 C21          2.1980     0.0000     1.1980 ca         1 7YP      -0.073000
      9 C22          8.1130     3.3720    -4.2650 ca         1 7YP      -0.148000
     10 C1           7.6110     1.5580    -0.2660 c2         1 7YP       0.157000
     11 C2           3.5850    -0.0080    -1.1960 ca         1 7YP       0.105000
     12 C3           4.2760    -0.0130     0.0080 ca         1 7YP      -0.003000
     13 N4           6.2840     1.3280    -0.2270 ny         1 7YP       0.055000
     14 O8           4.2660    -0.0150    -2.3710 os         1 7YP      -0.120000
     15 C9           7.7370     3.3940    -1.9000 ca         1 7YP      -0.127000
     16 C11          2.1970    -0.0080    -1.1970 ca         1 7YP      -0.193000
     17 O12          8.3900     0.6430    -0.1030 o          1 7YP      -0.332000
     18 O13          5.6110    -0.0290    -4.6040 o          1 7YP      -0.083000
     19 C14          3.5810    -0.0050     1.2010 ca         1 7YP      -0.045000
     20 C16          8.4690     2.9670    -2.9920 ca         1 7YP      -0.056000
     21 C18          3.4900    -0.0220    -3.5710 c3         1 7YP       0.047000
     22 N19          3.8970    -0.0360    -6.0110 nz         1 7YP       0.824000
     23 C23          6.2880     4.6340    -3.3480 ca         1 7YP      -0.148000
     24 O24          9.5510     2.9620    -0.3940 os         1 7YP      -0.227000
     25 O25          6.6720     4.6110    -5.6960 oh         1 7YP      -0.278000
     26 N27         -0.4900    -1.3840     0.0070 nz         1 7YP       0.853000
     27 H1          -0.3610     0.5160     0.8820 hx         1 7YP       0.124500
     28 H2          -0.3610     0.5060    -0.8870 hx         1 7YP       0.124500
     29 H3           7.6990     3.6310     0.2150 h1         1 7YP       0.064000
     30 H4           5.8420     0.7510     0.7640 DU         1 7YP       0.156000
     31 H5           6.3620    -0.8410     0.4310 hx         1 7YP       0.203000
     32 H6           6.0730     4.5570    -1.2210 ha         1 7YP       0.118500
     33 H7           1.6550     0.0060     2.1350 ha         1 7YP       0.124000
     34 H8           8.6890     3.0380    -5.1200 ha         1 7YP       0.119500
     35 H9           9.3310     3.9000     1.4280 h1         1 7YP       0.038333
     36 H10         10.9990     3.6940     0.8770 h1         1 7YP       0.038333
     37 H11         10.0900     2.3030     1.4830 h1         1 7YP       0.038333
     38 H12          5.6410     2.0900    -0.3160 hn         1 7YP       0.091000
     39 H13          1.6560    -0.0040    -2.1350 ha         1 7YP       0.105000
     40 H14          4.1190    -0.0050     2.1410 ha         1 7YP       0.142000
     41 H15          9.3200     2.3120    -2.8500 ha         1 7YP       0.118500
     42 H16          2.8650    -0.9070    -3.5920 h1         1 7YP       0.070500
     43 H17          2.8650     0.8620    -3.6020 h1         1 7YP       0.070500
     44 H18          3.3400    -0.8580    -6.1380 hn         1 7YP       0.046333
     45 H19          3.3270     0.7760    -6.1420 hn         1 7YP       0.046333
     46 H20          5.4350     5.2880    -3.4870 ha         1 7YP       0.119500
     47 H21          7.1190     5.4130    -5.9070 ho         1 7YP       0.227000
     48 H22         -0.2090    -1.8420    -0.8370 hn         1 7YP       0.020667
     49 H23         -0.1060    -1.8700     0.7940 hn         1 7YP       0.020667
     50 C26         10.0210     3.2310     0.9280 c3         1 7YP       0.055000
     51 H193         4.6430    -0.0320    -6.6780 hn         1 7YP       0.046333
     52 H273        -1.4890    -1.3840     0.0670 hn         1 7YP       0.020667
@<TRIPOS>BOND
     1     1     5 1   
     2     1    26 1   
     3     1    27 1   
     4     1    28 1   
     5     2    10 1   
     6     2    15 1   
     7     2    24 1   
     8     2    29 1   
     9     3    18 1   
    10     3    21 1   
    11     3    22 1   
    12     4    12 1   
    13     4    13 1   
    14     4    30 1   
    15     4    31 1   
    16     5     8 1   
    17     5    16 1   
    18     6    15 1   
    19     6    23 1   
    20     6    32 1   
    21     7     9 1   
    22     7    23 1   
    23     7    25 1   
    24     8    19 1   
    25     8    33 1   
    26     9    20 1   
    27     9    34 1   
    28    10    13 1   
    29    10    17 1   
    30    11    12 1   
    31    11    14 1   
    32    11    16 1   
    33    12    19 1   
    34    13    30 1   
    35    13    38 1   
    36    14    21 1   
    37    15    20 1   
    38    16    39 1   
    39    19    40 1   
    40    20    41 1   
    41    21    42 1   
    42    21    43 1   
    43    22    44 1   
    44    22    45 1   
    45    22    51 1   
    46    23    46 1   
    47    24    50 1   
    48    25    47 1   
    49    26    48 1   
    50    26    49 1   
    51    26    52 1   
    52    35    50 1   
    53    36    50 1   
    54    37    50 1   
@<TRIPOS>SUBSTRUCTURE
     1 7YP         1 TEMP              0 ****  ****    0 ROOT
