@<TRIPOS>MOLECULE
molecule
   45    48     1     0     0
SMALL
bcc


@<TRIPOS>ATOM
      1 CAA          0.0000     0.0000     0.0000 c3         1 7Z0       0.116700
      2 OAU          1.4290     0.0000     0.0000 os         1 7Z0      -0.357400
      3 CBC          2.0450     0.0000     1.2120 cc         1 7Z0       0.602200
      4 CBE          3.4890    -0.0000     1.4470 ca         1 7Z0      -0.349200
      5 CAP          4.6090     0.0000     0.6130 ca         1 7Z0       0.025000
      6 NAR          1.4570     0.0060     2.3770 nd         1 7Z0      -0.588100
      7 NAT          2.4130     0.0030     3.3970 na         1 7Z0      -0.131800
      8 CBD          3.6650    -0.0000     2.8460 ca         1 7Z0       0.522800
      9 NAQ          4.8880    -0.0030     3.3660 nb         1 7Z0      -0.723000
     10 CAN          5.9630    -0.0060     2.6110 ca         1 7Z0       0.510200
     11 CAW          5.8700     0.0000     1.2120 ca         1 7Z0      -0.196300
     12 CAG          7.0550     0.0000     0.4070 cg         1 7Z0      -0.034000
     13 CAH          8.0210     0.0190    -0.2590 ch         1 7Z0      -0.111000
     14 CBB          9.3480    -0.4050    -0.9300 ca         1 7Z0       0.062000
     15 CAY         10.7560    -0.1030    -0.2360 ca         1 7Z0       0.134900
     16 FAE         10.6430    -0.0590     1.3940 f          1 7Z0      -0.131900
     17 CAX          9.5270    -0.9920    -2.0090 ca         1 7Z0       0.165900
     18 FAD          8.1540    -0.9440    -3.0210 f          1 7Z0      -0.223900
     19 CAL         10.4620    -1.3090    -2.5170 ca         1 7Z0      -0.155000
     20 CAM         11.7200    -1.1640    -2.1320 ca         1 7Z0      -0.075000
     21 CBA         11.7060    -0.5620    -1.0090 ca         1 7Z0       0.143600
     22 NAS         13.0650    -0.4480     0.0530 nu         1 7Z0      -0.748500
     23 SBF         14.3490     0.4940    -0.6090 sy         1 7Z0       0.877200
     24 OAB         15.6730     0.2980     0.3390 o          1 7Z0      -0.506800
     25 OAC         14.8090    -0.0610    -1.9560 o          1 7Z0      -0.506800
     26 CAZ         13.9990     2.2060    -0.9240 ca         1 7Z0      -0.128500
     27 CAO         14.2940     3.1170    -0.1230 ca         1 7Z0      -0.052000
     28 CAV         14.0910     4.6280    -0.1870 ca         1 7Z0      -0.032900
     29 Br          14.3750     5.7820     1.2650 br         1 7Z0      -0.002100
     30 CAJ         13.3880     4.8460    -1.5510 ca         1 7Z0      -0.089000
     31 CAI         13.0560     4.0290    -2.4050 ca         1 7Z0      -0.110000
     32 CAK         13.3670     2.4160    -2.1470 ca         1 7Z0      -0.062000
     33 H1          -0.4470    -0.0870    -0.9830 h1         1 7Z0       0.046700
     34 H2          -0.4610    -0.8410     0.5040 h1         1 7Z0       0.046700
     35 H3          -0.4610     0.9030     0.3810 h1         1 7Z0       0.046700
     36 H4           4.7970     0.1890    -0.4370 ha         1 7Z0       0.165000
     37 H6           6.9500     0.1180     3.0400 h4         1 7Z0       0.039100
     38 H7          10.4620    -1.6830    -3.5340 ha         1 7Z0       0.174000
     39 H8          12.4790    -1.7030    -2.6850 ha         1 7Z0       0.207000
     40 H9          13.2620    -1.0620     0.8190 hn         1 7Z0       0.479800
     41 H10         14.4050     2.6770     0.8610 ha         1 7Z0       0.123000
     42 H11         13.4110     5.9290    -1.5490 ha         1 7Z0       0.138000
     43 H12         12.5130     4.2850    -3.3070 ha         1 7Z0       0.154000
     44 H13         13.4870     1.8250    -3.0470 ha         1 7Z0       0.187000
     45 H5           2.1220    -0.1950     4.3340 hn         1 7Z0       0.343700
@<TRIPOS>BOND
     1     6     7 1
     2     6     3 2
     3     1     2 1
     4     7     8 1
     5     3     2 1
     6     3     4 1
     7     8     4 ar
     8     8     9 ar
     9     4     5 ar
    10     9    10 ar
    11     5    11 ar
    12    10    11 ar
    13    11    12 1
    14    12    13 3
    15    13    14 1
    16    16    15 1
    17    14    15 ar
    18    14    17 ar
    19    18    17 1
    20    15    21 ar
    21    17    19 ar
    22    21    22 1
    23    21    20 ar
    24    19    20 ar
    25    22    23 1
    26    32    31 ar
    27    32    26 ar
    28    23    24 2
    29    23    26 1
    30    23    25 2
    31    31    30 ar
    32    26    27 ar
    33    30    28 ar
    34    27    28 ar
    35    28    29 1
    36     1    33 1
    37     1    34 1
    38     1    35 1
    39     5    36 1
    40    10    37 1
    41    19    38 1
    42    20    39 1
    43    22    40 1
    44    27    41 1
    45    30    42 1
    46    31    43 1
    47    32    44 1
    48     7    45 1
@<TRIPOS>SUBSTRUCTURE
     1 7Z0         1 TEMP              0 ****  ****    0 ROOT
