@<TRIPOS>MOLECULE
molecule
   65    69     1     0     0
SMALL
bcc


@<TRIPOS>ATOM
      1 C4           0.0000     0.0000     0.0000 ca         1 7Z1      -0.105300
      2 C5          -0.1480     3.3830    -3.1010 c3         1 7Z1       0.164000
      3 C7          -2.3180    -4.7970    -1.4330 ca         1 7Z1      -0.248300
      4 C8          -2.4430    -6.2000    -1.5310 ca         1 7Z1       0.735200
      5 C10          1.3850     0.0000     0.0000 ca         1 7Z1       0.085900
      6 C13         -0.6910    -0.0000     1.1960 ca         1 7Z1      -0.097000
      7 C15         -2.1560    -2.0330    -1.2230 ca         1 7Z1       0.225600
      8 C17          0.1130     4.2940    -1.9290 ca         1 7Z1      -0.092300
      9 C21         -1.0130    -2.7960    -1.4890 ca         1 7Z1      -0.205000
     10 C22          0.0020    -0.0000     2.3980 ca         1 7Z1       0.137100
     11 C24         -4.7210    -6.0670    -1.1000 ca         1 7Z1       0.479200
     12 C26          0.9680     3.5470    -4.1540 c3         1 7Z1      -0.088400
     13 C28         -4.7020    -4.7130    -0.9870 ca         1 7Z1      -0.324300
     14 C1          -0.9630     1.4290    -1.7570 c          1 7Z1       0.678100
     15 N2          -0.1270     1.9810    -2.6580 n          1 7Z1      -0.485800
     16 C3          -0.7520     0.0070    -1.3050 c3         1 7Z1       0.222800
     17 N6          -2.0510    -0.6450    -1.1230 nu         1 7Z1      -0.809600
     18 C9          -3.4790    -4.0330    -1.1530 ca         1 7Z1       0.073000
     19 N11         -3.6240    -6.7660    -1.3620 nb         1 7Z1      -0.801000
     20 C14         -1.0860    -4.1510    -1.5980 ca         1 7Z1      -0.054000
     21 C16         -3.3830    -2.6400    -1.0500 ca         1 7Z1      -0.227000
     22 C18          2.0790     0.0000     1.2000 ca         1 7Z1      -0.126000
     23 C19          0.9600     1.2790    -3.3630 c3         1 7Z1       0.082000
     24 F23          2.0600     0.0000    -1.1700 f          1 7Z1      -0.151900
     25 C25          1.3900    -0.0000     2.3970 ca         1 7Z1      -0.195000
     26 O27         -0.6770    -0.0010     3.5750 os         1 7Z1      -0.322900
     27 C29          1.1870     2.0970    -4.6590 c3         1 7Z1      -0.097400
     28 C30          1.0530     3.9450    -0.9790 ca         1 7Z1      -0.111000
     29 C31         -0.5840     5.4820    -1.8100 ca         1 7Z1      -0.111000
     30 C32          0.1020    -0.0000     4.7730 c3         1 7Z1       0.135400
     31 C33         -0.8300    -0.0010     5.9870 c3         1 7Z1      -0.092100
     32 C34          1.2960     4.7840     0.0930 ca         1 7Z1      -0.127000
     33 C35         -0.3440     6.3190    -0.7360 ca         1 7Z1      -0.127000
     34 C36          0.5990     5.9720     0.2130 ca         1 7Z1      -0.126000
     35 H1          -1.1090     3.6120    -3.5460 h1         1 7Z1       0.070700
     36 H2          -1.7750    -0.0000     1.1960 ha         1 7Z1       0.166000
     37 H3          -0.0570    -2.3010    -1.6110 ha         1 7Z1       0.132000
     38 H4          -5.6600    -6.5930    -0.9720 h4         1 7Z1       0.015100
     39 H5           0.6380     4.1870    -4.9630 hc         1 7Z1       0.060700
     40 H6           1.8710     3.9320    -3.6960 hc         1 7Z1       0.060700
     41 H7          -5.6120    -4.1650    -0.7720 ha         1 7Z1       0.137000
     42 H8          -0.1810    -0.5290    -2.0540 h1         1 7Z1       0.080700
     43 H9          -2.8700    -0.0920    -0.9640 hn         1 7Z1       0.463800
     44 H10         -0.1930    -4.7280    -1.8050 ha         1 7Z1       0.121000
     45 H11         -4.2640    -2.0440    -0.8440 ha         1 7Z1       0.140000
     46 H12          3.1620     0.0000     1.1990 ha         1 7Z1       0.145000
     47 H13          0.6590     0.2670    -3.6060 h1         1 7Z1       0.056700
     48 H14          1.8600     1.2760    -2.7590 h1         1 7Z1       0.056700
     49 H15         -1.4240    -7.9740    -1.8720 hn         1 7Z1       0.440300
     50 H16         -0.4380    -6.5500    -1.9310 hn         1 7Z1       0.440300
     51 H17          1.9320    -0.0000     3.3340 ha         1 7Z1       0.142000
     52 H18          2.1970     1.9650    -5.0270 hc         1 7Z1       0.057700
     53 H19          0.4540     1.8370    -5.4130 hc         1 7Z1       0.057700
     54 H20          1.5990     3.0150    -1.0730 ha         1 7Z1       0.131000
     55 H21         -1.3230     5.7540    -2.5540 ha         1 7Z1       0.131000
     56 H22          0.7270    -0.8850     4.7970 h1         1 7Z1       0.034700
     57 H23          0.7260     0.8850     4.7970 h1         1 7Z1       0.034700
     58 H24         -0.2390    -0.0010     6.8950 hc         1 7Z1       0.049367
     59 H25         -1.4550     0.8840     5.9630 hc         1 7Z1       0.049367
     60 H26         -1.4550    -0.8850     5.9630 hc         1 7Z1       0.049367
     61 H27          2.0340     4.5120     0.8370 ha         1 7Z1       0.128000
     62 H28         -0.8900     7.2500    -0.6420 ha         1 7Z1       0.128000
     63 H29          0.7890     6.6290     1.0540 ha         1 7Z1       0.127000
     64 O12         -1.8860     2.0770    -1.3090 o          1 7Z1      -0.592100
     65 N20         -1.3320    -6.9800    -1.8030 nv         1 7Z1      -1.005500
@<TRIPOS>BOND
     1    32    34 ar  
     2    32    28 ar  
     3    34    33 ar  
     4    28     8 ar  
     5    33    29 ar  
     6     8    29 ar  
     7     8     2 1   
     8    31    30 1   
     9    30    26 1   
    10     2    12 1   
    11     2    15 1   
    12    64    14 2   
    13    12    27 1   
    14    26    10 1   
    15    14    15 1   
    16    14    16 1   
    17    15    23 1   
    18     6    10 ar  
    19     6     1 ar  
    20    10    25 ar  
    21    27    23 1   
    22    17    16 1   
    23    17     7 1   
    24    16     1 1   
    25     1     5 ar  
    26    25    22 ar  
    27     9     7 ar  
    28     9    20 ar  
    29     7    21 ar  
    30     5    22 ar  
    31     5    24 1   
    32    20     3 ar  
    33    21    18 ar  
    34     3    18 ar  
    35     3     4 ar  
    36    18    13 ar  
    37    65     4 1   
    38     4    19 ar  
    39    13    11 ar  
    40    19    11 ar  
    41     2    35 1   
    42     6    36 1   
    43     9    37 1   
    44    11    38 1   
    45    12    39 1   
    46    12    40 1   
    47    13    41 1   
    48    16    42 1   
    49    17    43 1   
    50    20    44 1   
    51    21    45 1   
    52    22    46 1   
    53    23    47 1   
    54    23    48 1   
    55    65    49 1   
    56    65    50 1   
    57    25    51 1   
    58    27    52 1   
    59    27    53 1   
    60    28    54 1   
    61    29    55 1   
    62    30    56 1   
    63    30    57 1   
    64    31    58 1   
    65    31    59 1   
    66    31    60 1   
    67    32    61 1   
    68    33    62 1   
    69    34    63 1   
@<TRIPOS>SUBSTRUCTURE
     1 7Z1         1 TEMP              0 ****  ****    0 ROOT
