@<TRIPOS>MOLECULE
7Z1
   65    69     1     0     0
SMALL
bcc


@<TRIPOS>ATOM
      1 C4           0.0000     0.0000     0.0000 ca         1 7Z1      -0.097300
      2 C5          -0.1480     3.3830    -3.1010 c3         1 7Z1       0.095000
      3 C7          -2.3180    -4.7970    -1.4330 ca         1 7Z1      -0.250300
      4 C8          -2.4430    -6.2000    -1.5310 ca         1 7Z1       0.541200
      5 C10          1.3850     0.0000     0.0000 ca         1 7Z1       0.051900
      6 C13         -0.6910    -0.0000     1.1960 ca         1 7Z1      -0.089000
      7 C15         -2.1560    -2.0330    -1.2230 ca         1 7Z1       0.085600
      8 C17          0.1130     4.2940    -1.9290 ca         1 7Z1      -0.101300
      9 C21         -1.0130    -2.7960    -1.4890 ca         1 7Z1      -0.195000
     10 C22          0.0020    -0.0000     2.3980 ca         1 7Z1       0.154100
     11 C24         -4.7210    -6.0670    -1.1000 ca         1 7Z1       0.470200
     12 C26          0.9680     3.5470    -4.1540 c3         1 7Z1      -0.032400
     13 C28         -4.7020    -4.7130    -0.9870 ca         1 7Z1      -0.308300
     14 C1          -0.9630     1.4290    -1.7570 c          1 7Z1       0.601100
     15 N2          -0.1270     1.9810    -2.6580 n          1 7Z1      -0.143800
     16 C3          -0.7520     0.0070    -1.3050 c3         1 7Z1       0.115800
     17 N6          -2.0510    -0.6450    -1.1230 nu         1 7Z1      -0.406600
     18 C9          -3.4790    -4.0330    -1.1530 ca         1 7Z1       0.086000
     19 N11         -3.6240    -6.7660    -1.3620 nb         1 7Z1      -0.703000
     20 C14         -1.0860    -4.1510    -1.5980 ca         1 7Z1      -0.024000
     21 C16         -3.3830    -2.6400    -1.0500 ca         1 7Z1      -0.208000
     22 C18          2.0790     0.0000     1.2000 ca         1 7Z1      -0.083000
     23 C19          0.9600     1.2790    -3.3630 c3         1 7Z1       0.020000
     24 F23          2.0600     0.0000    -1.1700 f          1 7Z1      -0.133900
     25 C25          1.3900    -0.0000     2.3970 ca         1 7Z1      -0.186000
     26 O27         -0.6770    -0.0010     3.5750 os         1 7Z1      -0.299900
     27 C29          1.1870     2.0970    -4.6590 c3         1 7Z1      -0.031400
     28 C30          1.0530     3.9450    -0.9790 ca         1 7Z1      -0.087000
     29 C31         -0.5840     5.4820    -1.8100 ca         1 7Z1      -0.087000
     30 C32          0.1020    -0.0000     4.7730 c3         1 7Z1       0.201400
     31 C33         -0.8300    -0.0010     5.9870 c3         1 7Z1       0.001900
     32 C34          1.2960     4.7840     0.0930 ca         1 7Z1      -0.098000
     33 C35         -0.3440     6.3190    -0.7360 ca         1 7Z1      -0.098000
     34 C36          0.5990     5.9720     0.2130 ca         1 7Z1      -0.098000
     35 H1          -1.1090     3.6120    -3.5460 h1         1 7Z1       0.041700
     36 H2          -1.7750    -0.0000     1.1960 ha         1 7Z1       0.136000
     37 H3          -0.0570    -2.3010    -1.6110 ha         1 7Z1       0.115000
     38 H4          -5.6600    -6.5930    -0.9720 h4         1 7Z1      -0.030900
     39 H5           0.6380     4.1870    -4.9630 hc         1 7Z1       0.030200
     40 H6           1.8710     3.9320    -3.6960 hc         1 7Z1       0.030200
     41 H7          -5.6120    -4.1650    -0.7720 ha         1 7Z1       0.117000
     42 H8          -0.1810    -0.5290    -2.0540 h1         1 7Z1       0.060700
     43 H9          -2.8700    -0.0920    -0.9640 hn         1 7Z1       0.318800
     44 H10         -0.1930    -4.7280    -1.8050 ha         1 7Z1       0.096000
     45 H11         -4.2640    -2.0440    -0.8440 ha         1 7Z1       0.120000
     46 H12          3.1620     0.0000     1.1990 ha         1 7Z1       0.116000
     47 H13          0.6590     0.2670    -3.6060 h1         1 7Z1       0.032200
     48 H14          1.8600     1.2760    -2.7590 h1         1 7Z1       0.032200
     49 H15         -1.4240    -7.9740    -1.8720 hn         1 7Z1       0.271800
     50 H16         -0.4380    -6.5500    -1.9310 hn         1 7Z1       0.271800
     51 H17          1.9320    -0.0000     3.3340 ha         1 7Z1       0.125000
     52 H18          2.1970     1.9650    -5.0270 hc         1 7Z1       0.026200
     53 H19          0.4540     1.8370    -5.4130 hc         1 7Z1       0.026200
     54 H20          1.5990     3.0150    -1.0730 ha         1 7Z1       0.106000
     55 H21         -1.3230     5.7540    -2.5540 ha         1 7Z1       0.106000
     56 H22          0.7270    -0.8850     4.7970 h1         1 7Z1      -0.000300
     57 H23          0.7260     0.8850     4.7970 h1         1 7Z1      -0.000300
     58 H24         -0.2390    -0.0010     6.8950 hc         1 7Z1       0.012700
     59 H25         -1.4550     0.8840     5.9630 hc         1 7Z1       0.012700
     60 H26         -1.4550    -0.8850     5.9630 hc         1 7Z1       0.012700
     61 H27          2.0340     4.5120     0.8370 ha         1 7Z1       0.101500
     62 H28         -0.8900     7.2500    -0.6420 ha         1 7Z1       0.101500
     63 H29          0.7890     6.6290     1.0540 ha         1 7Z1       0.101000
     64 O12         -1.8860     2.0770    -1.3090 o          1 7Z1      -0.633100
     65 N20         -1.3320    -6.9800    -1.8030 nv         1 7Z1      -0.523500
@<TRIPOS>BOND
     1     1     5 ar  
     2     1     6 ar  
     3     1    16 1   
     4     2     8 1   
     5     2    12 1   
     6     2    15 1   
     7     2    35 1   
     8     3     4 ar  
     9     3    18 ar  
    10     3    20 ar  
    11     4    19 ar  
    12     4    65 1   
    13     5    22 ar  
    14     5    24 1   
    15     6    10 ar  
    16     6    36 1   
    17     7     9 ar  
    18     7    17 1   
    19     7    21 ar  
    20     8    28 ar  
    21     8    29 ar  
    22     9    20 ar  
    23     9    37 1   
    24    10    25 ar  
    25    10    26 1   
    26    11    13 ar  
    27    11    19 ar  
    28    11    38 1   
    29    12    27 1   
    30    12    39 1   
    31    12    40 1   
    32    13    18 ar  
    33    13    41 1   
    34    14    15 1   
    35    14    16 1   
    36    14    64 2   
    37    15    23 1   
    38    16    17 1   
    39    16    42 1   
    40    17    43 1   
    41    18    21 ar  
    42    20    44 1   
    43    21    45 1   
    44    22    25 ar  
    45    22    46 1   
    46    23    27 1   
    47    23    47 1   
    48    23    48 1   
    49    25    51 1   
    50    26    30 1   
    51    27    52 1   
    52    27    53 1   
    53    28    32 ar  
    54    28    54 1   
    55    29    33 ar  
    56    29    55 1   
    57    30    31 1   
    58    30    56 1   
    59    30    57 1   
    60    31    58 1   
    61    31    59 1   
    62    31    60 1   
    63    32    34 ar  
    64    32    61 1   
    65    33    34 ar  
    66    33    62 1   
    67    34    63 1   
    68    49    65 1   
    69    50    65 1   
@<TRIPOS>SUBSTRUCTURE
     1 7Z1         1 TEMP              0 ****  ****    0 ROOT
