@<TRIPOS>MOLECULE
molecule
   30    31     1     0     0
SMALL
bcc


@<TRIPOS>ATOM
      1 C1           0.0000     0.0000     0.0000 c3         1 7Z3       0.160100
      2 N1           1.4690     0.0000     0.0000 nz         1 7Z3      -0.808600
      3 C2          -0.5020     0.0000     1.4200 ca         1 7Z3      -0.170300
      4 N2          -1.4310    -2.4040     4.0400 nh         1 7Z3      -0.565000
      5 C3          -0.7330     1.1970     2.0720 ca         1 7Z3      -0.145000
      6 C4          -1.1950     1.2020     3.3750 ca         1 7Z3      -0.076000
      7 C5          -1.4270     0.0090     4.0310 ca         1 7Z3      -0.134000
      8 C6          -1.1970    -1.1960     3.3790 ca         1 7Z3       0.146600
      9 C7          -1.0880    -2.3000     5.4750 c3         1 7Z3       0.148800
     10 C8          -0.5370    -3.6700     5.9090 c3         1 7Z3      -0.087900
     11 C9          -0.5620    -4.5390     4.6310 c3         1 7Z3      -0.087900
     12 C10         -0.5680    -3.4840     3.4960 c3         1 7Z3       0.148800
     13 C11         -0.7380    -1.1970     2.0680 ca         1 7Z3      -0.194000
     14 H11C        -0.3610     0.8840    -0.5110 hx         1 7Z3       0.110200
     15 H12C        -0.3610    -0.8840    -0.5110 hx         1 7Z3       0.110200
     16 H11N         1.8030    -0.8520     0.4060 hn         1 7Z3       0.454467
     17 H12N         1.8030     0.0750    -0.9410 hn         1 7Z3       0.454467
     18 H3          -0.5550     2.1350     1.5590 ha         1 7Z3       0.133000
     19 H11         -1.2090    -1.8800     1.3720 ha         1 7Z3       0.157000
     20 H71C        -1.9760    -2.0610     6.0490 h1         1 7Z3       0.052200
     21 H72C        -0.3330    -1.5370     5.6180 h1         1 7Z3       0.052200
     22 H101         0.4340    -3.1150     3.3130 h1         1 7Z3       0.052200
     23 H102        -1.0000    -3.8990     2.5930 h1         1 7Z3       0.052200
     24 H4          -1.3800     2.1420     3.8800 ha         1 7Z3       0.159000
     25 H5          -1.8610     0.0120     5.0240 ha         1 7Z3       0.165000
     26 H81C        -1.1730    -4.1060     6.6700 hc         1 7Z3       0.064200
     27 H82C         0.4790    -3.5670     6.2720 hc         1 7Z3       0.064200
     28 H91C        -1.4610    -5.1420     4.5960 hc         1 7Z3       0.064200
     29 H92C         0.3260    -5.1570     4.5720 hc         1 7Z3       0.064200
     30 H13          1.8030     0.7740     0.5400 hn         1 7Z3       0.454467
@<TRIPOS>BOND
     1     1     2 1   
     2     1     3 1   
     3     3     5 ar  
     4     3    13 ar  
     5     4     8 1   
     6     4     9 1   
     7     4    12 1   
     8     5     6 ar  
     9     6     7 ar  
    10     7     8 ar  
    11     8    13 ar  
    12     9    10 1   
    13    10    11 1   
    14    11    12 1   
    15     1    14 1   
    16     1    15 1   
    17     2    16 1   
    18     2    17 1   
    19     5    18 1   
    20    13    19 1   
    21     9    20 1   
    22     9    21 1   
    23    12    22 1   
    24    12    23 1   
    25     6    24 1   
    26     7    25 1   
    27    10    26 1   
    28    10    27 1   
    29    11    28 1   
    30    11    29 1   
    31    30     2 1   
@<TRIPOS>SUBSTRUCTURE
     1 7Z3         1 TEMP              0 ****  ****    0 ROOT
