@<TRIPOS>MOLECULE
7Z4
   56    60     1     0     0
SMALL
bcc


@<TRIPOS>ATOM
      1 N3           0.0000     0.0000     0.0000 na         1 7Z4       0.617300
      2 C5           3.1440     0.0010     1.8160 c          1 7Z4       0.633700
      3 C6           0.5880    -0.0000     2.1230 cc         1 7Z4       0.435200
      4 C7           8.1520    -1.6770     2.8840 c          1 7Z4       0.724100
      5 C10         -0.8190     0.0060    -1.1370 ca         1 7Z4      -0.169200
      6 N12          3.3930    -0.0000     3.1400 ns         1 7Z4      -0.034100
      7 C13          7.3090    -0.3100     4.5350 ca         1 7Z4      -0.256900
      8 C15          5.6350    -0.8750     2.8880 ca         1 7Z4      -0.013000
      9 C17          4.7010    -0.1070     3.6010 ca         1 7Z4      -0.068400
     10 C20         -2.0250    -0.6840    -1.1290 ca         1 7Z4      -0.059000
     11 C24          6.3800     0.4480     5.2340 ca         1 7Z4      -0.013000
     12 C28         -8.7790    -0.6190    -1.2490 ca         1 7Z4      -0.075400
     13 C1           1.7590     0.0000     1.3290 cc         1 7Z4      -0.447900
     14 C2           1.3490     0.0000     0.0000 cd         1 7Z4       0.045800
     15 N4          -0.4440     0.0000     1.3270 nd         1 7Z4      -0.654800
     16 N8           9.1400    -1.4040     3.7570 nc         1 7Z4      -0.574100
     17 C9           6.9250    -0.9760     3.3490 ca         1 7Z4      -0.183600
     18 C11         -6.4700    -0.9930    -1.6840 c          1 7Z4       0.566100
     19 N14         -7.4510    -0.1770    -1.2510 ns         1 7Z4      -0.049100
     20 N16         -5.2050    -0.5380    -1.7740 ns         1 7Z4      -0.220900
     21 O18          4.0680     0.0010     1.0230 o          1 7Z4      -0.632100
     22 C19          8.7320    -0.6310     4.7270 cd         1 7Z4       0.569800
     23 O21          8.2470    -2.3690     1.8910 o          1 7Z4      -0.492100
     24 O22         -6.7260    -2.1410    -1.9940 o          1 7Z4      -0.694100
     25 O23          2.1530    -0.0000    -1.0890 oh         1 7Z4      -0.448100
     26 C25         -2.8300    -0.6770    -2.2520 ca         1 7Z4      -0.120300
     27 C27          5.0790     0.5470     4.7650 ca         1 7Z4      -0.136000
     28 C29         -0.4300     0.7040    -2.2710 ca         1 7Z4      -0.085000
     29 C30         -1.2390     0.7080    -3.3900 ca         1 7Z4      -0.090000
     30 C31         -2.4360     0.0160    -3.3830 ca         1 7Z4      -0.070000
     31 C32         -9.0700    -1.9460    -0.9630 ca         1 7Z4      -0.122000
     32 C33         -9.8090     0.2700    -1.5280 ca         1 7Z4      -0.122000
     33 C34        -10.3820    -2.3790    -0.9620 ca         1 7Z4      -0.083000
     34 C35        -11.1190    -0.1670    -1.5190 ca         1 7Z4      -0.083000
     35 C36        -11.4050    -1.4930    -1.2440 ca         1 7Z4      -0.118000
     36 H1           0.5550    -0.0000     3.2060 h4         1 7Z4       0.002100
     37 H2           2.6350     0.0410     3.7920 hn         1 7Z4       0.171500
     38 H3           5.3120    -1.4770     2.0470 ha         1 7Z4       0.142000
     39 H4          -2.3030    -1.2800    -0.2680 ha         1 7Z4       0.130000
     40 H5           6.6700     0.9600     6.1440 ha         1 7Z4       0.105000
     41 H6          -4.3660    -1.7640    -3.2480 h1         1 7Z4       0.031200
     42 H7          -4.0610    -2.2800    -1.5830 h1         1 7Z4       0.031200
     43 H9          -7.2400     0.7700    -1.0040 hn         1 7Z4       0.159500
     44 H10         -4.9930     0.4060    -1.5160 hn         1 7Z4       0.171500
     45 H11          9.1270    -0.7620     5.7280 h4         1 7Z4      -0.000200
     46 H12          4.3540     1.1390     5.3100 ha         1 7Z4       0.111000
     47 H13          0.5080     1.2470    -2.2780 ha         1 7Z4       0.132000
     48 H14         -0.9340     1.2520    -4.2770 ha         1 7Z4       0.114000
     49 H15         -3.0690     0.0200    -4.2620 ha         1 7Z4       0.114000
     50 H16         -8.2690    -2.6410    -0.7420 ha         1 7Z4       0.125000
     51 H17         -9.5860     1.3080    -1.7430 ha         1 7Z4       0.125000
     52 H18        -10.6090    -3.4150    -0.7430 ha         1 7Z4       0.102000
     53 H19        -11.9220     0.5250    -1.7380 ha         1 7Z4       0.102000
     54 H20        -12.4330    -1.8340    -1.2400 ha         1 7Z4       0.102000
     55 H8           2.4640    -0.8760    -1.2500 ho         1 7Z4       0.425000
     56 C26         -4.1380    -1.4250    -2.2440 c3         1 7Z4       0.128300
@<TRIPOS>BOND
     1     1     5 1   
     2     1    14 1   
     3     1    15 1   
     4     2     6 1   
     5     2    13 1   
     6     2    21 2   
     7     3    13 1   
     8     3    15 2   
     9     3    36 1   
    10     4    16 1   
    11     4    17 1   
    12     4    23 2   
    13     5    10 ar  
    14     5    28 ar  
    15     6     9 1   
    16     6    37 1   
    17     7    11 ar  
    18     7    17 ar  
    19     7    22 1   
    20     8     9 ar  
    21     8    17 ar  
    22     8    38 1   
    23     9    27 ar  
    24    10    26 ar  
    25    10    39 1   
    26    11    27 ar  
    27    11    40 1   
    28    12    19 1   
    29    12    31 ar  
    30    12    32 ar  
    31    13    14 2   
    32    14    25 1   
    33    16    22 2   
    34    18    19 1   
    35    18    20 1   
    36    18    24 2   
    37    19    43 1   
    38    20    44 1   
    39    20    56 1   
    40    22    45 1   
    41    25    55 1   
    42    26    30 ar  
    43    26    56 1   
    44    27    46 1   
    45    28    29 ar  
    46    28    47 1   
    47    29    30 ar  
    48    29    48 1   
    49    30    49 1   
    50    31    33 ar  
    51    31    50 1   
    52    32    34 ar  
    53    32    51 1   
    54    33    35 ar  
    55    33    52 1   
    56    34    35 ar  
    57    34    53 1   
    58    35    54 1   
    59    41    56 1   
    60    42    56 1   
@<TRIPOS>SUBSTRUCTURE
     1 7Z4         1 TEMP              0 ****  ****    0 ROOT
