@<TRIPOS>MOLECULE
7Z5
   41    42     1     0     0
SMALL
bcc


@<TRIPOS>ATOM
      1 CAA          0.0000     0.0000     0.0000 ca         1 7Z5      -0.088600
      2 CAB          1.4030     0.0000     0.0000 ca         1 7Z5      -0.107400
      3 CAC         -0.6910     0.0010     1.2140 ca         1 7Z5      -0.123000
      4 CAD         -0.7410     0.0060    -1.2730 c          1 7Z5       0.985200
      5 CAE          2.0940     0.0000     1.2040 ca         1 7Z5      -0.094000
      6 NAF          2.1020    -0.0020    -1.2070 ns         1 7Z5      -0.008100
      7 CAG          0.0120     0.0010     2.4070 ca         1 7Z5       0.028600
      8 OAH         -0.1400     0.1020    -2.3260 o          1 7Z5      -0.886800
      9 OAI         -2.0840    -0.0940    -1.2720 o          1 7Z5      -0.886800
     10 CAJ          1.4040     0.0000     2.3990 ca         1 7Z5      -0.205000
     11 CAK          3.2680    -0.6710    -1.3100 c          1 7Z5       0.544100
     12 NAL         -0.6790     0.0020     3.6240 nh         1 7Z5      -0.406000
     13 CAM          4.0820    -0.5750    -2.5740 c3         1 7Z5      -0.100400
     14 OAN          3.6600    -1.3510    -0.3860 o          1 7Z5      -0.689100
     15 CAO          0.0640     0.0010     4.8880 c3         1 7Z5       0.239100
     16 CAP         -2.1430     0.0020     3.6350 c3         1 7Z5       0.213100
     17 CAQ          5.3470    -1.4230    -2.4320 c3         1 7Z5       0.021900
     18 CAR          0.3180     1.4220     5.3200 ca         1 7Z5      -0.225600
     19 CAS          1.4650     2.0860     4.9110 ca         1 7Z5      -0.056000
     20 CAT         -0.5910     2.0830     6.1250 ca         1 7Z5       0.406200
     21 CAU          1.6580     3.3920     5.3340 ca         1 7Z5      -0.224300
     22 NAV         -0.3750     3.3260     6.5080 nb         1 7Z5      -0.596000
     23 CAW          0.7070     3.9860     6.1430 ca         1 7Z5       0.390200
     24 HAC         -1.7740     0.0010     1.2220 ha         1 7Z5       0.141000
     25 HAE          3.1770    -0.0000     1.2050 ha         1 7Z5       0.120000
     26 HNAF         1.7620     0.5320    -1.9820 hn         1 7Z5       0.220500
     27 HAJ          1.9480     0.0010     3.3350 ha         1 7Z5       0.100000
     28 HAM          3.4960    -0.9390    -3.4100 hc         1 7Z5       0.022700
     29 HAMA         4.3580     0.4580    -2.7490 hc         1 7Z5       0.022700
     30 HAO          1.0090    -0.5100     4.7520 h1         1 7Z5       0.023700
     31 HAOA        -0.5160    -0.5090     5.6470 h1         1 7Z5       0.023700
     32 HAP         -2.5090    -0.8390     3.0570 h1         1 7Z5       0.002367
     33 HAPA        -2.5080     0.9240     3.1990 h1         1 7Z5       0.002367
     34 HAPB        -2.4970    -0.0810     4.6550 h1         1 7Z5       0.002367
     35 HAQ          5.9610    -1.0250    -1.6330 hc         1 7Z5       0.000367
     36 HAQA         5.0720    -2.4450    -2.2000 hc         1 7Z5       0.000367
     37 HAQB         5.9040    -1.4000    -3.3610 hc         1 7Z5       0.000367
     38 HAS          2.1940     1.5950     4.2770 ha         1 7Z5       0.130000
     39 HAT         -1.4920     1.5730     6.4450 h4         1 7Z5      -0.022900
     40 HAU          2.5440     3.9400     5.0360 ha         1 7Z5       0.108000
     41 HAW          0.8510     5.0060     6.4770 h4         1 7Z5      -0.028900
@<TRIPOS>BOND
     1     1     2 ar  
     2     1     3 ar  
     3     1     4 1   
     4     2     5 ar  
     5     2     6 1   
     6     3     7 ar  
     7     3    24 1   
     8     4     8 1   
     9     4     9 1   
    10     5    10 ar  
    11     5    25 1   
    12     6    11 1   
    13     6    26 1   
    14     7    10 ar  
    15     7    12 1   
    16    10    27 1   
    17    11    13 1   
    18    11    14 2   
    19    12    15 1   
    20    12    16 1   
    21    13    17 1   
    22    13    28 1   
    23    13    29 1   
    24    15    18 1   
    25    15    30 1   
    26    15    31 1   
    27    16    32 1   
    28    16    33 1   
    29    16    34 1   
    30    17    35 1   
    31    17    36 1   
    32    17    37 1   
    33    18    19 ar  
    34    18    20 ar  
    35    19    21 ar  
    36    19    38 1   
    37    20    22 ar  
    38    20    39 1   
    39    21    23 ar  
    40    21    40 1   
    41    22    23 ar  
    42    23    41 1   
@<TRIPOS>SUBSTRUCTURE
     1 7Z5         1 TEMP              0 ****  ****    0 ROOT
