@<TRIPOS>MOLECULE
7Z6
   41    44     1     0     0
SMALL
bcc


@<TRIPOS>ATOM
      1 C4           0.0000     0.0000     0.0000 ca         1 7Z6      -0.074000
      2 C5          -0.0050     0.0090     2.4030 ca         1 7Z6      -0.076000
      3 C6           0.0440     5.7270    -5.9160 ca         1 7Z6       0.413200
      4 C7          -1.2100     3.8420    -5.4910 ca         1 7Z6       0.422200
      5 C8          -4.8220     1.3420    -0.8670 ca         1 7Z6       0.540200
      6 C10         -1.7780     4.4230    -4.3740 ca         1 7Z6      -0.247600
      7 C13         -4.1800     0.6300     0.1280 ca         1 7Z6      -0.427200
      8 C15         -2.7860     2.1400    -1.5960 ca         1 7Z6       0.758900
      9 C17          2.4010     0.0020     3.5050 c3         1 7Z6      -0.047100
     10 C1          -0.4890     6.3760    -4.8180 ca         1 7Z6      -0.223300
     11 C2          -1.4190     5.7160    -4.0290 ca         1 7Z6      -0.050000
     12 C3           1.3790     0.0000     0.0000 ca         1 7Z6      -0.099000
     13 C9           1.3710     0.0030     2.3990 ca         1 7Z6      -0.131300
     14 C11          2.0800     0.0000     1.2040 ca         1 7Z6      -0.117400
     15 C12         -0.7000     0.0080     1.1990 ca         1 7Z6      -0.021400
     16 C14         -2.7880     0.7120     0.2130 ca         1 7Z6       0.576200
     17 C16          3.7270    -0.0000     2.7750 c          1 7Z6       0.608500
     18 C18         -2.7760     3.6610    -3.5410 c3         1 7Z6       0.235100
     19 N19         -0.3250     4.4970    -6.2160 nb         1 7Z6      -0.582000
     20 N20         -4.1040     2.0770    -1.7040 nb         1 7Z6      -0.740000
     21 N21         -2.1320     1.4700    -0.6610 nb         1 7Z6      -0.752000
     22 N22          3.4550    -0.0020     1.4590 ns         1 7Z6      -0.008100
     23 N23         -2.1000     0.0160     1.1950 nu         1 7Z6      -0.295300
     24 O25          4.8280    -0.0020     3.2830 o          1 7Z6      -0.651500
     25 Cl1         -5.0820    -0.3450     1.2460 cl         1 7Z6      -0.006400
     26 H1          -0.5390    -0.0010    -0.9400 ha         1 7Z6       0.134000
     27 H2          -0.5450     0.0160     3.3420 ha         1 7Z6       0.109000
     28 H4          -1.4870     2.8320    -5.7680 h4         1 7Z6      -0.015900
     29 H5          -5.9000     1.2980    -0.9630 h4         1 7Z6      -0.012900
     30 H6           2.3050     0.8950     4.1110 hc         1 7Z6       0.053200
     31 H7           2.3020    -0.8890     4.1130 hc         1 7Z6       0.053200
     32 H8          -0.1840     7.3870    -4.5770 ha         1 7Z6       0.116000
     33 H9          -1.8510     6.1990    -3.1600 ha         1 7Z6       0.114000
     34 H10          1.9190    -0.0070    -0.9390 ha         1 7Z6       0.107000
     35 H11         -3.4730     4.3560    -3.0880 h1         1 7Z6       0.030200
     36 H12         -3.3180     2.9680    -4.1730 h1         1 7Z6       0.030200
     37 H13          4.1550    -0.0040     0.7450 hn         1 7Z6       0.175500
     38 H14         -2.6050    -0.4920     1.8950 hn         1 7Z6       0.296800
     39 N24         -2.0730     2.9190    -2.4920 nu         1 7Z6      -0.482900
     40 H3           0.7730     6.2340    -6.5370 h4         1 7Z6      -0.018900
     41 H15         -1.0770     2.9850    -2.4150 hn         1 7Z6       0.304800
@<TRIPOS>BOND
     1     1    12 ar  
     2     1    15 ar  
     3     1    26 1   
     4     2    13 ar  
     5     2    15 ar  
     6     2    27 1   
     7     3    10 ar  
     8     3    19 ar  
     9     3    40 1   
    10     4     6 ar  
    11     4    19 ar  
    12     4    28 1   
    13     5     7 ar  
    14     5    20 ar  
    15     5    29 1   
    16     6    11 ar  
    17     6    18 1   
    18     7    16 ar  
    19     7    25 1   
    20     8    20 ar  
    21     8    21 ar  
    22     8    39 1   
    23     9    13 1   
    24     9    17 1   
    25     9    30 1   
    26     9    31 1   
    27    10    11 ar  
    28    10    32 1   
    29    11    33 1   
    30    12    14 ar  
    31    12    34 1   
    32    13    14 ar  
    33    14    22 1   
    34    15    23 1   
    35    16    21 ar  
    36    16    23 1   
    37    17    22 1   
    38    17    24 2   
    39    18    35 1   
    40    18    36 1   
    41    18    39 1   
    42    22    37 1   
    43    23    38 1   
    44    39    41 1   
@<TRIPOS>SUBSTRUCTURE
     1 7Z6         1 TEMP              0 ****  ****    0 ROOT
