@<TRIPOS>MOLECULE
molecule
   41    44     1     0     0
SMALL
bcc


@<TRIPOS>ATOM
      1 C4           0.0000     0.0000     0.0000 ca         1 7Z6      -0.091000
      2 C5          -0.0050     0.0090     2.4030 ca         1 7Z6      -0.112000
      3 C6           0.0440     5.7270    -5.9160 ca         1 7Z6       0.429200
      4 C7          -1.2100     3.8420    -5.4910 ca         1 7Z6       0.437200
      5 C8          -4.8220     1.3420    -0.8670 ca         1 7Z6       0.542200
      6 C10         -1.7780     4.4230    -4.3740 ca         1 7Z6      -0.248600
      7 C13         -4.1800     0.6300     0.1280 ca         1 7Z6      -0.348200
      8 C15         -2.7860     2.1400    -1.5960 ca         1 7Z6       0.976900
      9 C17          2.4010     0.0020     3.5050 c3         1 7Z6      -0.121100
     10 C1          -0.4890     6.3760    -4.8180 ca         1 7Z6      -0.257300
     11 C2          -1.4190     5.7160    -4.0290 ca         1 7Z6      -0.075000
     12 C3           1.3790     0.0000     0.0000 ca         1 7Z6      -0.141000
     13 C9           1.3710     0.0030     2.3990 ca         1 7Z6      -0.129300
     14 C11          2.0800     0.0000     1.2040 ca         1 7Z6       0.035600
     15 C12         -0.7000     0.0080     1.1990 ca         1 7Z6       0.130600
     16 C14         -2.7880     0.7120     0.2130 ca         1 7Z6       0.771200
     17 C16          3.7270    -0.0000     2.7750 c          1 7Z6       0.709500
     18 C18         -2.7760     3.6610    -3.5410 c3         1 7Z6       0.299100
     19 N19         -0.3250     4.4970    -6.2160 nb         1 7Z6      -0.690000
     20 N20         -4.1040     2.0770    -1.7040 nb         1 7Z6      -0.826000
     21 N21         -2.1320     1.4700    -0.6610 nb         1 7Z6      -0.852000
     22 N22          3.4550    -0.0020     1.4590 ns         1 7Z6      -0.461100
     23 N23         -2.1000     0.0160     1.1950 nu         1 7Z6      -0.758300
     24 O25          4.8280    -0.0020     3.2830 o          1 7Z6      -0.608500
     25 Cl1         -5.0820    -0.3450     1.2460 cl         1 7Z6      -0.105400
     26 H1          -0.5390    -0.0010    -0.9400 ha         1 7Z6       0.162000
     27 H2          -0.5450     0.0160     3.3420 ha         1 7Z6       0.137000
     28 H4          -1.4870     2.8320    -5.7680 h4         1 7Z6       0.028100
     29 H5          -5.9000     1.2980    -0.9630 h4         1 7Z6       0.040100
     30 H6           2.3050     0.8950     4.1110 hc         1 7Z6       0.090200
     31 H7           2.3020    -0.8890     4.1130 hc         1 7Z6       0.090200
     32 H8          -0.1840     7.3870    -4.5770 ha         1 7Z6       0.142000
     33 H9          -1.8510     6.1990    -3.1600 ha         1 7Z6       0.144000
     34 H10          1.9190    -0.0070    -0.9390 ha         1 7Z6       0.136000
     35 H11         -3.4730     4.3560    -3.0880 h1         1 7Z6       0.060200
     36 H12         -3.3180     2.9680    -4.1730 h1         1 7Z6       0.060200
     37 H13          4.1550    -0.0040     0.7450 hn         1 7Z6       0.337500
     38 H14         -2.6050    -0.4920     1.8950 hn         1 7Z6       0.470800
     39 N24         -2.0730     2.9190    -2.4920 nu         1 7Z6      -0.893900
     40 H3           0.7730     6.2340    -6.5370 h4         1 7Z6       0.026100
     41 H15         -1.0770     2.9850    -2.4150 hn         1 7Z6       0.461800
@<TRIPOS>BOND
     1    24    17 2   
     2    17     9 1   
     3    17    22 1   
     4     9    13 1   
     5    22    14 1   
     6    13    14 ar  
     7    13     2 ar  
     8    14    12 ar  
     9     2    15 ar  
    10    12     1 ar  
    11    15     1 ar  
    12    15    23 1   
    13    23    16 1   
    14    19     3 ar  
    15    19     4 ar  
    16     3    10 ar  
    17    16    21 ar  
    18    16     7 ar  
    19     4     6 ar  
    20    25     7 1   
    21    21     8 ar  
    22     7     5 ar  
    23    10    11 ar  
    24     6    11 ar  
    25     6    18 1   
    26    18    39 1   
    27     8    39 1   
    28     8    20 ar  
    29     5    20 ar  
    30     1    26 1   
    31     2    27 1   
    32     3    40 1   
    33     4    28 1   
    34     5    29 1   
    35     9    30 1   
    36     9    31 1   
    37    10    32 1   
    38    11    33 1   
    39    12    34 1   
    40    18    35 1   
    41    18    36 1   
    42    22    37 1   
    43    23    38 1   
    44    39    41 1   
@<TRIPOS>SUBSTRUCTURE
     1 7Z6         1 TEMP              0 ****  ****    0 ROOT
