@<TRIPOS>MOLECULE
7Z7
   48    51     1     0     0
SMALL
bcc


@<TRIPOS>ATOM
      1 N3           0.0000     0.0000     0.0000 na         1 7Z7       0.600300
      2 C4           3.1620    -0.0000     1.8090 cc         1 7Z7      -0.130300
      3 C7           0.6030     0.0010     2.1190 cc         1 7Z7       0.416200
      4 C8           4.1810    -0.7130     1.2630 cd         1 7Z7      -0.143200
      5 C10          5.3760    -0.4180     2.0520 ca         1 7Z7      -0.226100
      6 C13         -7.5700    -0.0780    -1.1630 c3         1 7Z7       0.119100
      7 C15         -2.0280    -0.6840    -1.1230 ca         1 7Z7      -0.063000
      8 C20          5.9290     0.9380     3.9580 ca         1 7Z7      -0.225300
      9 C21         -2.8390    -0.6720    -2.2410 ca         1 7Z7      -0.117300
     10 C22          6.7080    -0.8250     2.0030 ca         1 7Z7       0.464200
     11 C24         -0.4340     0.7000    -2.2720 ca         1 7Z7      -0.094000
     12 C26          7.2250     0.4850     3.8360 ca         1 7Z7       0.412200
     13 C28         -1.2520     0.7120    -3.3850 ca         1 7Z7      -0.089000
     14 C1           1.7660     0.0000     1.3220 cc         1 7Z7      -0.285100
     15 C2           1.3580     0.0000     0.0000 cd         1 7Z7      -0.015200
     16 N5          -0.4370     0.0010     1.3300 nd         1 7Z7      -0.651800
     17 N6           3.6280     0.7190     2.8860 na         1 7Z7       0.370600
     18 C9          -0.8230     0.0050    -1.1350 ca         1 7Z7      -0.158200
     19 C11          4.9710     0.4890     3.0540 ca         1 7Z7      -0.207200
     20 C12         -6.4770    -0.9890    -1.6550 c          1 7Z7       0.541100
     21 N14         -5.2110    -0.5340    -1.7510 ns         1 7Z7      -0.210900
     22 O16         -6.7330    -2.1320    -1.9670 o          1 7Z7      -0.612100
     23 O17          2.1630    -0.0010    -1.0920 oh         1 7Z7      -0.453100
     24 N18          7.5720    -0.3660     2.8840 nb         1 7Z7      -0.611000
     25 O23         -8.8290    -0.7480    -1.2610 oh         1 7Z7      -0.541800
     26 C25         -7.3050     0.2950     0.2970 c3         1 7Z7       0.217400
     27 O27         -8.2760     1.2490     0.7290 oh         1 7Z7      -0.585800
     28 C29         -2.4520     0.0250    -3.3710 ca         1 7Z7      -0.076000
     29 H1           0.5770     0.0010     3.2020 h4         1 7Z7       0.006100
     30 H2           4.0830    -1.4990     0.5240 ha         1 7Z7       0.126000
     31 H3          -7.5910     0.8210    -1.7670 h1         1 7Z7       0.013700
     32 H4          -2.3040    -1.2780    -0.2610 ha         1 7Z7       0.131000
     33 H5           5.6620     1.6350     4.7430 ha         1 7Z7       0.108000
     34 H6           7.0320    -1.5210     1.2390 h4         1 7Z7      -0.023900
     35 H7           0.5060     1.2380    -2.2840 ha         1 7Z7       0.132000
     36 H8           7.9750     0.8310     4.5360 h4         1 7Z7      -0.022900
     37 H9          -0.9500     1.2550    -4.2720 ha         1 7Z7       0.112000
     38 H11          3.0720     1.3240     3.4570 hn         1 7Z7       0.115700
     39 H12         -5.0050     0.4200    -1.5270 hn         1 7Z7       0.179500
     40 H13         -4.0690    -2.2770    -1.5730 h1         1 7Z7       0.031200
     41 H14         -4.3820    -1.7540    -3.2340 h1         1 7Z7       0.031200
     42 H15         -9.3120    -0.4040    -1.9950 ho         1 7Z7       0.391000
     43 H16         -7.3720    -0.5930     0.9140 h1         1 7Z7      -0.003800
     44 H17         -6.3130     0.7220     0.3860 h1         1 7Z7      -0.003800
     45 H18         -8.1150     1.4750     1.6310 ho         1 7Z7       0.394000
     46 H19         -3.0900     0.0340    -4.2460 ha         1 7Z7       0.112000
     47 H10          2.3190    -0.8890    -1.3670 ho         1 7Z7       0.411000
     48 C19         -4.1480    -1.4190    -2.2300 c3         1 7Z7       0.114300
@<TRIPOS>BOND
     1     1    15 1   
     2     1    16 1   
     3     1    18 1   
     4     2     4 2   
     5     2    14 1   
     6     2    17 1   
     7     3    14 1   
     8     3    16 2   
     9     3    29 1   
    10     4     5 1   
    11     4    30 1   
    12     5    10 ar  
    13     5    19 ar  
    14     6    20 1   
    15     6    25 1   
    16     6    26 1   
    17     6    31 1   
    18     7     9 ar  
    19     7    18 ar  
    20     7    32 1   
    21     8    12 ar  
    22     8    19 ar  
    23     8    33 1   
    24     9    28 ar  
    25     9    48 1   
    26    10    24 ar  
    27    10    34 1   
    28    11    13 ar  
    29    11    18 ar  
    30    11    35 1   
    31    12    24 ar  
    32    12    36 1   
    33    13    28 ar  
    34    13    37 1   
    35    14    15 2   
    36    15    23 1   
    37    17    19 1   
    38    17    38 1   
    39    20    21 1   
    40    20    22 2   
    41    21    39 1   
    42    21    48 1   
    43    23    47 1   
    44    25    42 1   
    45    26    27 1   
    46    26    43 1   
    47    26    44 1   
    48    27    45 1   
    49    28    46 1   
    50    40    48 1   
    51    41    48 1   
@<TRIPOS>SUBSTRUCTURE
     1 7Z7         1 TEMP              0 ****  ****    0 ROOT
