@<TRIPOS>MOLECULE
7Z9
   33    35     1     0     0
SMALL
bcc


@<TRIPOS>ATOM
      1 C15          0.0000     0.0000     0.0000 ca         1 7Z9       0.089900
      2 C17          0.0830    -0.0050     2.3890 ca         1 7Z9       0.428700
      3 C20          1.3950     0.0000     0.0000 ca         1 7Z9      -0.225800
      4 C19          2.0650     0.0000     1.2060 ca         1 7Z9       0.428700
      5 C11          0.3950     2.5110    -2.7430 c          1 7Z9       0.602100
      6 C16         -0.6610    -0.0000     1.2280 ca         1 7Z9      -0.225800
      7 C2           0.8680    -1.1930    -3.2220 ca         1 7Z9       0.037700
      8 C3           0.3670     0.0050    -2.7330 ca         1 7Z9       0.056900
      9 C4           0.8830     1.2140    -3.2210 ca         1 7Z9      -0.088600
     10 C5           1.9030     1.2020    -4.2000 ca         1 7Z9       0.036400
     11 C6           2.3850    -0.0190    -4.6730 ca         1 7Z9       0.003000
     12 C7           1.8660    -1.1990    -4.1830 ca         1 7Z9      -0.088000
     13 N8           2.3880     2.3820    -4.6590 nc         1 7Z9      -0.368100
     14 C9           1.9340     3.5270    -4.2160 cd         1 7Z9      -0.001200
     15 N10          0.9530     3.6240    -3.2720 ns         1 7Z9      -0.022400
     16 N13          2.4710     4.6830    -4.7240 nz         1 7Z9       0.210400
     17 S14         -0.9030     0.0070    -1.5130 ss         1 7Z9      -0.225800
     18 N18          1.4020    -0.0000     2.3480 nb         1 7Z9      -0.571000
     19 H1          -0.4210    -0.0060     3.3480 h4         1 7Z9      -0.012900
     20 H2           1.9450     0.0000    -0.9340 ha         1 7Z9       0.121000
     21 H3           3.1480     0.0020     1.2170 h4         1 7Z9      -0.012900
     22 H4          -1.7440    -0.0030     1.2700 ha         1 7Z9       0.121000
     23 H5           0.8900    -2.8110    -1.8380 hc         1 7Z9       0.041367
     24 H6           0.3990    -3.2540    -3.4780 hc         1 7Z9       0.041367
     25 H7          -0.7180    -2.3710    -2.4290 hc         1 7Z9       0.041367
     26 H8           3.1650    -0.0400    -5.4240 ha         1 7Z9       0.128000
     27 H9           2.2430    -2.1440    -4.5560 ha         1 7Z9       0.135000
     28 H10          0.6430     4.5260    -2.9700 hn         1 7Z9       0.188500
     29 H11          1.7490     5.2210    -5.1620 hn         1 7Z9       0.218467
     30 H12          2.8800     5.2160    -3.9820 hn         1 7Z9       0.218467
     31 C1           0.3210    -2.4990    -2.7050 c3         1 7Z9       0.019200
     32 H133         3.1740     4.4570    -5.3990 hn         1 7Z9       0.218467
     33 O12         -0.4850     2.5840    -1.9040 o          1 7Z9      -0.540500
@<TRIPOS>BOND
     1     1     3 ar  
     2     1     6 ar  
     3     1    17 1   
     4     2     6 ar  
     5     2    18 ar  
     6     2    19 1   
     7     3     4 ar  
     8     3    20 1   
     9     4    18 ar  
    10     4    21 1   
    11     5     9 1   
    12     5    15 1   
    13     5    33 2   
    14     6    22 1   
    15     7     8 ar  
    16     7    12 ar  
    17     7    31 1   
    18     8     9 ar  
    19     8    17 1   
    20     9    10 ar  
    21    10    11 ar  
    22    10    13 1   
    23    11    12 ar  
    24    11    26 1   
    25    12    27 1   
    26    13    14 2   
    27    14    15 1   
    28    14    16 1   
    29    15    28 1   
    30    16    29 1   
    31    16    30 1   
    32    16    32 1   
    33    23    31 1   
    34    24    31 1   
    35    25    31 1   
@<TRIPOS>SUBSTRUCTURE
     1 7Z9         1 TEMP              0 ****  ****    0 ROOT
