@<TRIPOS>MOLECULE
7ZA
   75    79     1     0     0
SMALL
bcc


@<TRIPOS>ATOM
      1 N1           0.0000     0.0000     0.0000 n          1 7ZA      -0.154800
      2 C4           1.4710     0.0000     0.0000 c3         1 7ZA       0.095000
      3 C5          -2.7110     1.2360    -0.2170 ca         1 7ZA      -0.114300
      4 C7          -3.4890    -3.6940    -4.1920 ca         1 7ZA      -0.250300
      5 C8          -3.7050    -4.9160    -4.8670 ca         1 7ZA       0.541200
      6 C10         -3.0110     1.1760     1.1320 ca         1 7ZA      -0.185000
      7 C15         -2.8920    -3.6450    -2.9250 ca         1 7ZA      -0.025000
      8 C17         -3.1100    -1.2520    -2.9260 ca         1 7ZA       0.099600
      9 C20          1.9830     1.2360    -0.6950 ca         1 7ZA      -0.098300
     10 C21         -3.2000     3.5820    -0.2320 ca         1 7ZA      -0.178000
     11 C22         -0.4730     0.0300     1.3960 c3         1 7ZA       0.021000
     12 C24         -2.7100    -2.4430    -2.3110 ca         1 7ZA      -0.187000
     13 C28         -4.5010    -2.5760    -6.0950 ca         1 7ZA      -0.308300
     14 C2          -0.7840    -0.0200    -1.0960 c          1 7ZA       0.580100
     15 C3          -2.2840    -0.0110    -0.9480 c3         1 7ZA       0.128800
     16 N6          -2.9050    -0.0360    -2.2740 nu         1 7ZA      -0.391600
     17 C9          -3.5030     3.5290     1.1190 ca         1 7ZA       0.130100
     18 C11         -3.4080     2.3210     1.8030 ca         1 7ZA       0.122100
     19 C12         -3.8980    -2.4920    -4.8230 ca         1 7ZA       0.087000
     20 N13         -4.2760    -4.9140    -6.0570 nb         1 7ZA      -0.704000
     21 O14         -0.2840    -0.0440    -2.2000 o          1 7ZA      -0.617100
     22 O16         -3.8920     4.6550     1.7740 os         1 7ZA      -0.284900
     23 C18         -3.6960    -1.2670    -4.1750 ca         1 7ZA      -0.210000
     24 C19         -2.8040     2.4360    -0.8970 ca         1 7ZA      -0.087000
     25 C25         -4.6650    -3.8000    -6.6630 ca         1 7ZA       0.469200
     26 C27          1.9290     0.0000     1.4740 c3         1 7ZA      -0.032400
     27 C29         -3.8520     5.8800     1.0390 c3         1 7ZA       0.160100
     28 C30          0.6920    -0.5690     2.2220 c3         1 7ZA      -0.035400
     29 C31          1.3490     2.4490    -0.5050 ca         1 7ZA      -0.086500
     30 C32          3.0900     1.1560    -1.5190 ca         1 7ZA      -0.086500
     31 C33         -3.5860     0.9910     3.7670 c3         1 7ZA       0.197400
     32 C34         -5.1480     6.0380     0.2410 c3         1 7ZA      -0.016600
     33 C35         -3.7060     7.0530     2.0100 c3         1 7ZA      -0.016600
     34 C36         -3.9590     1.1230     5.2450 c3         1 7ZA       0.002900
     35 C37          1.8220     3.5830    -1.1380 ca         1 7ZA      -0.099000
     36 C38          3.5600     2.2890    -2.1560 ca         1 7ZA      -0.099000
     37 C39          2.9300     3.5030    -1.9620 ca         1 7ZA      -0.099000
     38 H1           1.8380    -0.8890    -0.4980 h1         1 7ZA       0.040700
     39 H2          -2.9370     0.2350     1.6620 ha         1 7ZA       0.134000
     40 H3          -2.5760    -4.5580    -2.4370 ha         1 7ZA       0.094000
     41 H4          -3.2730     4.5210    -0.7680 ha         1 7ZA       0.131000
     42 H5          -0.6670     1.0500     1.7050 h1         1 7ZA       0.028700
     43 H6          -1.3620    -0.5790     1.5050 h1         1 7ZA       0.028700
     44 H7          -2.2490    -2.4090    -1.3310 ha         1 7ZA       0.107000
     45 H8          -4.8270    -1.6810    -6.6100 ha         1 7ZA       0.116000
     46 H9          -2.5960    -0.8830    -0.3860 h1         1 7ZA       0.053700
     47 H10         -3.1930     0.8190    -2.7080 hn         1 7ZA       0.303800
     48 H11         -4.0040    -0.3410    -4.6470 ha         1 7ZA       0.117000
     49 H12         -2.5680     2.4780    -1.9540 ha         1 7ZA       0.119000
     50 H13         -2.8850    -6.1090    -3.3820 hn         1 7ZA       0.271300
     51 H14         -3.4710    -6.9740    -4.7650 hn         1 7ZA       0.271300
     52 H15         -5.1280    -3.8680    -7.6410 h4         1 7ZA      -0.031900
     53 H16          2.7870    -0.6480     1.6070 hc         1 7ZA       0.030700
     54 H17          2.1460     1.0080     1.8060 hc         1 7ZA       0.030700
     55 H18         -3.0080     5.8660     0.3600 h1         1 7ZA       0.018700
     56 H19          0.6790    -1.6510     2.1790 hc         1 7ZA       0.024700
     57 H20          0.6630    -0.2130     3.2450 hc         1 7ZA       0.024700
     58 H21          0.4820     2.5120     0.1410 ha         1 7ZA       0.106000
     59 H22          3.5850     0.2040    -1.6720 ha         1 7ZA       0.106000
     60 H23         -2.5730     0.6170     3.6820 h1         1 7ZA      -0.003300
     61 H24         -4.2670     0.3000     3.2830 h1         1 7ZA      -0.003300
     62 H25         -4.9300     6.5060    -0.7120 hc         1 7ZA       0.014367
     63 H26         -5.5890     5.0630     0.0720 hc         1 7ZA       0.014367
     64 H27         -5.8410     6.6570     0.7970 hc         1 7ZA       0.014367
     65 H28         -4.5110     7.0260     2.7340 hc         1 7ZA       0.014367
     66 H29         -3.7470     7.9850     1.4590 hc         1 7ZA       0.014367
     67 H30         -2.7550     6.9790     2.5250 hc         1 7ZA       0.014367
     68 H31         -3.2830     1.8190     5.7270 hc         1 7ZA       0.012367
     69 H32         -4.9750     1.4880     5.3300 hc         1 7ZA       0.012367
     70 H33         -3.8820     0.1540     5.7240 hc         1 7ZA       0.012367
     71 H34          1.3260     4.5340    -0.9870 ha         1 7ZA       0.101000
     72 H35          4.4280     2.2260    -2.8020 ha         1 7ZA       0.101000
     73 H36          3.2990     4.3920    -2.4600 ha         1 7ZA       0.101000
     74 O26         -3.7060     2.2640     3.1290 os         1 7ZA      -0.287900
     75 N23         -3.3180    -6.1100    -4.2840 nv         1 7ZA      -0.525500
@<TRIPOS>BOND
     1     1     2 1   
     2     1    11 1   
     3     1    14 1   
     4     2     9 1   
     5     2    26 1   
     6     2    38 1   
     7     3     6 ar  
     8     3    15 1   
     9     3    24 ar  
    10     4     5 ar  
    11     4     7 ar  
    12     4    19 ar  
    13     5    20 ar  
    14     5    75 1   
    15     6    18 ar  
    16     6    39 1   
    17     7    12 ar  
    18     7    40 1   
    19     8    12 ar  
    20     8    16 1   
    21     8    23 ar  
    22     9    29 ar  
    23     9    30 ar  
    24    10    17 ar  
    25    10    24 ar  
    26    10    41 1   
    27    11    28 1   
    28    11    42 1   
    29    11    43 1   
    30    12    44 1   
    31    13    19 ar  
    32    13    25 ar  
    33    13    45 1   
    34    14    15 1   
    35    14    21 2   
    36    15    16 1   
    37    15    46 1   
    38    16    47 1   
    39    17    18 ar  
    40    17    22 1   
    41    18    74 1   
    42    19    23 ar  
    43    20    25 ar  
    44    22    27 1   
    45    23    48 1   
    46    24    49 1   
    47    25    52 1   
    48    26    28 1   
    49    26    53 1   
    50    26    54 1   
    51    27    32 1   
    52    27    33 1   
    53    27    55 1   
    54    28    56 1   
    55    28    57 1   
    56    29    35 ar  
    57    29    58 1   
    58    30    36 ar  
    59    30    59 1   
    60    31    34 1   
    61    31    60 1   
    62    31    61 1   
    63    31    74 1   
    64    32    62 1   
    65    32    63 1   
    66    32    64 1   
    67    33    65 1   
    68    33    66 1   
    69    33    67 1   
    70    34    68 1   
    71    34    69 1   
    72    34    70 1   
    73    35    37 ar  
    74    35    71 1   
    75    36    37 ar  
    76    36    72 1   
    77    37    73 1   
    78    50    75 1   
    79    51    75 1   
@<TRIPOS>SUBSTRUCTURE
     1 7ZA         1 TEMP              0 ****  ****    0 ROOT
