@<TRIPOS>MOLECULE
molecule
   31    32     1     0     0
SMALL
bcc


@<TRIPOS>ATOM
      1 C1           0.0000     0.0000     0.0000 c3         1 7ZC       0.130700
      2 O2           1.4290     0.0000     0.0000 os         1 7ZC      -0.331900
      3 C3           2.0470     0.0000     1.2110 ca         1 7ZC       0.111100
      4 C4           1.2870     0.0010     2.3780 ca         1 7ZC      -0.193000
      5 C5           1.8960     0.0000     3.6120 ca         1 7ZC      -0.106000
      6 C6           3.2850    -0.0000     3.7020 ca         1 7ZC      -0.069200
      7 N7           4.1640     0.0050     4.7640 na         1 7ZC      -0.185400
      8 C8           5.4520     0.0080     4.3000 cc         1 7ZC      -0.075100
      9 C9           5.4550     0.0050     2.9580 cd         1 7ZC      -0.155400
     10 C10          6.6680     0.0060     2.0650 c3         1 7ZC       0.241000
     11 N11          6.9160     1.3700     1.5770 n3         1 7ZC      -0.729600
     12 C12          8.2170     1.4590     0.9000 c3         1 7ZC       0.150100
     13 C13          5.8310     1.8180     0.6930 c3         1 7ZC       0.150100
     14 C14          4.0550    -0.0010     2.5260 ca         1 7ZC      -0.061800
     15 C15          3.4260    -0.0050     1.2790 ca         1 7ZC      -0.125000
     16 H1          -0.3610     0.8850     0.5100 h1         1 7ZC       0.038700
     17 H2          -0.3610    -0.0000    -1.0210 h1         1 7ZC       0.038700
     18 H3          -0.3610    -0.8840     0.5110 h1         1 7ZC       0.038700
     19 H4           0.2050     0.0010     2.3140 ha         1 7ZC       0.135000
     20 H5           1.2950     0.0010     4.5130 ha         1 7ZC       0.126000
     21 H6           3.9010     0.0060     5.7290 hn         1 7ZC       0.294700
     22 H7           6.3370     0.0110     4.9240 h4         1 7ZC       0.167000
     23 H8           6.4980    -0.6530     1.2230 h1         1 7ZC       0.036200
     24 H9           7.5290    -0.3390     2.6250 h1         1 7ZC       0.036200
     25 H11          8.3780     2.4740     0.5590 h1         1 7ZC       0.032200
     26 H12          9.0030     1.1810     1.5910 h1         1 7ZC       0.032200
     27 H13          8.2290     0.7870     0.0510 h1         1 7ZC       0.032200
     28 H14          5.5640     1.0170     0.0140 h1         1 7ZC       0.032200
     29 H15          6.1600     2.6790     0.1250 h1         1 7ZC       0.032200
     30 H16          4.9680     2.0880     1.2900 h1         1 7ZC       0.032200
     31 H17          4.0120    -0.1380     0.3780 ha         1 7ZC       0.145000
@<TRIPOS>BOND
     1     8     7 1
     2     8     9 2
     3     7     6 1
     4    10     9 1
     5    10    11 1
     6     9    14 1
     7    12    11 1
     8     6    14 ar
     9     6     5 ar
    10    11    13 1
    11    14    15 ar
    12     5     4 ar
    13    15     3 ar
    14     4     3 ar
    15     3     2 1
    16     2     1 1
    17     1    16 1
    18     1    17 1
    19     1    18 1
    20     4    19 1
    21     5    20 1
    22     7    21 1
    23     8    22 1
    24    10    23 1
    25    10    24 1
    26    12    25 1
    27    12    26 1
    28    12    27 1
    29    13    28 1
    30    13    29 1
    31    13    30 1
    32    15    31 1
@<TRIPOS>SUBSTRUCTURE
     1 7ZC         1 TEMP              0 ****  ****    0 ROOT
