@<TRIPOS>MOLECULE
7ZC
   31    32     1     0     0
SMALL
bcc


@<TRIPOS>ATOM
      1 C1           0.0000     0.0000     0.0000 c3         1 7ZC       0.244700
      2 O2           1.4290     0.0000     0.0000 os         1 7ZC      -0.309900
      3 C3           2.0470     0.0000     1.2110 ca         1 7ZC       0.122100
      4 C4           1.2870     0.0010     2.3780 ca         1 7ZC      -0.186000
      5 C5           1.8960     0.0000     3.6120 ca         1 7ZC      -0.058000
      6 C6           3.2850    -0.0000     3.7020 ca         1 7ZC      -0.259200
      7 N7           4.1640     0.0050     4.7640 na         1 7ZC       0.350600
      8 C8           5.4520     0.0080     4.3000 cc         1 7ZC      -0.242100
      9 C9           5.4550     0.0050     2.9580 cd         1 7ZC      -0.159400
     10 C10          6.6680     0.0060     2.0650 c3         1 7ZC       0.252000
     11 N11          6.9160     1.3700     1.5770 n3         1 7ZC      -0.545600
     12 C12          8.2170     1.4590     0.9000 c3         1 7ZC       0.174600
     13 C13          5.8310     1.8180     0.6930 c3         1 7ZC       0.174600
     14 C14          4.0550    -0.0010     2.5260 ca         1 7ZC      -0.052800
     15 C15          3.4260    -0.0050     1.2790 ca         1 7ZC      -0.109000
     16 H1          -0.3610     0.8850     0.5100 h1         1 7ZC      -0.004967
     17 H2          -0.3610    -0.0000    -1.0210 h1         1 7ZC      -0.004967
     18 H3          -0.3610    -0.8840     0.5110 h1         1 7ZC      -0.004967
     19 H4           0.2050     0.0010     2.3140 ha         1 7ZC       0.118000
     20 H5           1.2950     0.0010     4.5130 ha         1 7ZC       0.096000
     21 H6           3.9010     0.0060     5.7290 hn         1 7ZC       0.112700
     22 H7           6.3370     0.0110     4.9240 h4         1 7ZC       0.140000
     23 H8           6.4980    -0.6530     1.2230 h1         1 7ZC       0.006700
     24 H9           7.5290    -0.3390     2.6250 h1         1 7ZC       0.006700
     25 H11          8.3780     2.4740     0.5590 h1         1 7ZC       0.002867
     26 H12          9.0030     1.1810     1.5910 h1         1 7ZC       0.002867
     27 H13          8.2290     0.7870     0.0510 h1         1 7ZC       0.002867
     28 H14          5.5640     1.0170     0.0140 h1         1 7ZC       0.002867
     29 H15          6.1600     2.6790     0.1250 h1         1 7ZC       0.002867
     30 H16          4.9680     2.0880     1.2900 h1         1 7ZC       0.002867
     31 H17          4.0120    -0.1380     0.3780 ha         1 7ZC       0.122000
@<TRIPOS>BOND
     1     1     2 1   
     2     1    16 1   
     3     1    17 1   
     4     1    18 1   
     5     2     3 1   
     6     3     4 ar  
     7     3    15 ar  
     8     4     5 ar  
     9     4    19 1   
    10     5     6 ar  
    11     5    20 1   
    12     6     7 1   
    13     6    14 ar  
    14     7     8 1   
    15     7    21 1   
    16     8     9 2   
    17     8    22 1   
    18     9    10 1   
    19     9    14 1   
    20    10    11 1   
    21    10    23 1   
    22    10    24 1   
    23    11    12 1   
    24    11    13 1   
    25    12    25 1   
    26    12    26 1   
    27    12    27 1   
    28    13    28 1   
    29    13    29 1   
    30    13    30 1   
    31    14    15 ar  
    32    15    31 1   
@<TRIPOS>SUBSTRUCTURE
     1 7ZC         1 TEMP              0 ****  ****    0 ROOT
