@<TRIPOS>MOLECULE
molecule
   57    61     1     0     0
SMALL
bcc


@<TRIPOS>ATOM
      1 N3           0.0000     0.0000     0.0000 na         1 7ZD       0.134300
      2 C4           3.1620    -0.0000     1.8090 cc         1 7ZD       0.045700
      3 C7           0.6020    -0.0020     2.1190 cd         1 7ZD       0.358200
      4 C8           4.1810    -0.7120     1.2650 cd         1 7ZD      -0.175200
      5 C10          5.3750    -0.4170     2.0530 ca         1 7ZD      -0.229100
      6 C15         -2.0270    -0.6850    -1.1250 ca         1 7ZD      -0.102000
      7 C21          5.9280     0.9390     3.9610 ca         1 7ZD      -0.269300
      8 C22         -2.8370    -0.6730    -2.2440 ca         1 7ZD      -0.108300
      9 C24         -8.3290     1.2960     0.7500 ca         1 7ZD      -0.089300
     10 C26         -0.4330     0.7010    -2.2720 ca         1 7ZD      -0.128000
     11 C28         -1.2510     0.7130    -3.3860 ca         1 7ZD      -0.117000
     12 C1           1.7670     0.0000     1.3220 cd         1 7ZD      -0.274100
     13 C2           1.3580     0.0000     0.0000 cc         1 7ZD       0.138800
     14 N5          -0.4370    -0.0020     1.3290 nc         1 7ZD      -0.490800
     15 N6           3.6260     0.7180     2.8870 na         1 7ZD      -0.172400
     16 C9          -0.8220     0.0050    -1.1350 ca         1 7ZD       0.013800
     17 C11          4.9690     0.4900     3.0570 ca         1 7ZD      -0.012200
     18 C12         -6.4750    -0.9920    -1.6600 c          1 7ZD       0.623100
     19 N13         -5.2100    -0.5350    -1.7540 ns         1 7ZD      -0.589900
     20 C14         -7.5700    -0.0820    -1.1660 c3         1 7ZD       0.083100
     21 O16          2.1640     0.0000    -1.0920 oh         1 7ZD      -0.476100
     22 O17         -6.7320    -2.1350    -1.9720 o          1 7ZD      -0.586100
     23 N18          7.5720    -0.3630     2.8860 nb         1 7ZD      -0.712000
     24 C19         -7.3050     0.2890     0.2940 c3         1 7ZD      -0.026100
     25 C23          6.7080    -0.8230     2.0040 ca         1 7ZD       0.468200
     26 O25         -8.8270    -0.7530    -1.2660 oh         1 7ZD      -0.569800
     27 C27          7.2240     0.4910     3.8350 ca         1 7ZD       0.428200
     28 C29         -2.4500     0.0260    -3.3720 ca         1 7ZD      -0.115000
     29 C30         -8.0870     2.6480     0.5970 ca         1 7ZD      -0.116000
     30 C31         -9.5150     0.8660     1.3170 ca         1 7ZD      -0.116000
     31 C32         -9.0300     3.5700     1.0110 ca         1 7ZD      -0.129000
     32 C33        -10.4550     1.7890     1.7350 ca         1 7ZD      -0.129000
     33 C34        -10.2160     3.1410     1.5770 ca         1 7ZD      -0.127000
     34 H1           0.5750    -0.0030     3.2020 h4         1 7ZD       0.056100
     35 H2           4.0840    -1.4990     0.5260 ha         1 7ZD       0.152000
     36 H3          -2.3100    -1.2690    -0.2580 ha         1 7ZD       0.159000
     37 H4          -4.0660    -2.2780    -1.5760 h1         1 7ZD       0.062700
     38 H5          -4.3790    -1.7550    -3.2370 h1         1 7ZD       0.062700
     39 H6           5.6600     1.6380     4.7440 ha         1 7ZD       0.132000
     40 H7           0.5060     1.2390    -2.2830 ha         1 7ZD       0.159000
     41 H8          -0.9490     1.2580    -4.2720 ha         1 7ZD       0.143000
     42 H10          3.0690     1.3220     3.4590 hn         1 7ZD       0.299700
     43 H11         -5.0030     0.4160    -1.5220 hn         1 7ZD       0.317500
     44 H12         -7.5910     0.8170    -1.7700 h1         1 7ZD       0.045700
     45 H13         -7.3710    -0.5990     0.9100 hc         1 7ZD       0.064200
     46 H14         -6.3130     0.7170     0.3830 hc         1 7ZD       0.064200
     47 H15          7.0330    -1.5210     1.2420 h4         1 7ZD       0.023100
     48 H16         -9.1570    -0.6720    -2.1460 ho         1 7ZD       0.410000
     49 H17          7.9750     0.8380     4.5350 h4         1 7ZD       0.022100
     50 H18         -3.0880     0.0360    -4.2480 ha         1 7ZD       0.141000
     51 H19         -7.1580     2.9850     0.1530 ha         1 7ZD       0.133000
     52 H20         -9.7030    -0.1940     1.4410 ha         1 7ZD       0.133000
     53 H21         -8.8410     4.6300     0.8880 ha         1 7ZD       0.129500
     54 H22        -11.3840     1.4520     2.1790 ha         1 7ZD       0.129500
     55 H23        -10.9530     3.8640     1.9030 ha         1 7ZD       0.129000
     56 H9           2.3200    -0.8870    -1.3680 ho         1 7ZD       0.435000
     57 C20         -4.1460    -1.4200    -2.2330 c3         1 7ZD       0.162300
@<TRIPOS>BOND
     1    28    11 ar  
     2    28     8 ar  
     3    57    19 1   
     4    57     8 1   
     5    19    18 1   
     6    11    10 ar  
     7     8     6 ar  
     8    26    20 1   
     9    18    20 1   
    10    18    22 2   
    11    20    24 1   
    12    10    16 ar  
    13     6    16 ar  
    14    16     1 1   
    15    24     9 1   
    16    29     9 ar  
    17    29    31 ar  
    18     9    30 ar  
    19    21    13 1   
    20     1    13 1   
    21     1    14 1   
    22    31    33 ar  
    23    30    32 ar  
    24    13    12 2   
    25    33    32 ar  
    26    14     3 2   
    27    12     3 1   
    28    12     2 1   
    29    15     2 1   
    30    15    17 1   
    31     2     4 2   
    32    17     7 ar  
    33    17     5 ar  
    34     7    27 ar  
    35     4     5 1   
    36     5    25 ar  
    37    27    23 ar  
    38    25    23 ar  
    39     3    34 1   
    40     4    35 1   
    41     6    36 1   
    42    57    37 1   
    43    57    38 1   
    44     7    39 1   
    45    10    40 1   
    46    11    41 1   
    47    15    42 1   
    48    19    43 1   
    49    20    44 1   
    50    24    45 1   
    51    24    46 1   
    52    25    47 1   
    53    26    48 1   
    54    27    49 1   
    55    28    50 1   
    56    29    51 1   
    57    30    52 1   
    58    31    53 1   
    59    32    54 1   
    60    33    55 1   
    61    21    56 1   
@<TRIPOS>SUBSTRUCTURE
     1 7ZD         1 TEMP              0 ****  ****    0 ROOT
