@<TRIPOS>MOLECULE
7ZD
   57    61     1     0     0
SMALL
bcc


@<TRIPOS>ATOM
      1 N3           0.0000     0.0000     0.0000 na         1 7ZD       0.601300
      2 C4           3.1620    -0.0000     1.8090 cc         1 7ZD      -0.129300
      3 C7           0.6020    -0.0020     2.1190 cc         1 7ZD       0.416200
      4 C8           4.1810    -0.7120     1.2650 cd         1 7ZD      -0.143200
      5 C10          5.3750    -0.4170     2.0530 ca         1 7ZD      -0.226100
      6 C15         -2.0270    -0.6850    -1.1250 ca         1 7ZD      -0.062000
      7 C21          5.9280     0.9390     3.9610 ca         1 7ZD      -0.224300
      8 C22         -2.8370    -0.6730    -2.2440 ca         1 7ZD      -0.117300
      9 C24         -8.3290     1.2960     0.7500 ca         1 7ZD      -0.094300
     10 C26         -0.4330     0.7010    -2.2720 ca         1 7ZD      -0.094000
     11 C28         -1.2510     0.7130    -3.3860 ca         1 7ZD      -0.089000
     12 C1           1.7670     0.0000     1.3220 cc         1 7ZD      -0.285100
     13 C2           1.3580     0.0000     0.0000 cd         1 7ZD      -0.016200
     14 N5          -0.4370    -0.0020     1.3290 nd         1 7ZD      -0.649800
     15 N6           3.6260     0.7180     2.8870 na         1 7ZD       0.371600
     16 C9          -0.8220     0.0050    -1.1350 ca         1 7ZD      -0.158200
     17 C11          4.9690     0.4900     3.0570 ca         1 7ZD      -0.208200
     18 C12         -6.4750    -0.9920    -1.6600 c          1 7ZD       0.533100
     19 N13         -5.2100    -0.5350    -1.7540 ns         1 7ZD      -0.205900
     20 C14         -7.5700    -0.0820    -1.1660 c3         1 7ZD       0.129100
     21 O16          2.1640     0.0000    -1.0920 oh         1 7ZD      -0.453100
     22 O17         -6.7320    -2.1350    -1.9720 o          1 7ZD      -0.622100
     23 N18          7.5720    -0.3630     2.8860 nb         1 7ZD      -0.612000
     24 C19         -7.3050     0.2890     0.2940 c3         1 7ZD       0.029900
     25 C23          6.7080    -0.8230     2.0040 ca         1 7ZD       0.464200
     26 O25         -8.8270    -0.7530    -1.2660 oh         1 7ZD      -0.553800
     27 C27          7.2240     0.4910     3.8350 ca         1 7ZD       0.412200
     28 C29         -2.4500     0.0260    -3.3720 ca         1 7ZD      -0.077000
     29 C30         -8.0870     2.6480     0.5970 ca         1 7ZD      -0.090500
     30 C31         -9.5150     0.8660     1.3170 ca         1 7ZD      -0.090500
     31 C32         -9.0300     3.5700     1.0110 ca         1 7ZD      -0.101500
     32 C33        -10.4550     1.7890     1.7350 ca         1 7ZD      -0.101500
     33 C34        -10.2160     3.1410     1.5770 ca         1 7ZD      -0.101000
     34 H1           0.5750    -0.0030     3.2020 h4         1 7ZD       0.006100
     35 H2           4.0840    -1.4990     0.5260 ha         1 7ZD       0.126000
     36 H3          -2.3100    -1.2690    -0.2580 ha         1 7ZD       0.132000
     37 H4          -4.0660    -2.2780    -1.5760 h1         1 7ZD       0.031700
     38 H5          -4.3790    -1.7550    -3.2370 h1         1 7ZD       0.031700
     39 H6           5.6600     1.6380     4.7440 ha         1 7ZD       0.108000
     40 H7           0.5060     1.2390    -2.2830 ha         1 7ZD       0.131000
     41 H8          -0.9490     1.2580    -4.2720 ha         1 7ZD       0.112000
     42 H10          3.0690     1.3220     3.4590 hn         1 7ZD       0.115700
     43 H11         -5.0030     0.4160    -1.5220 hn         1 7ZD       0.179500
     44 H12         -7.5910     0.8170    -1.7700 h1         1 7ZD       0.009700
     45 H13         -7.3710    -0.5990     0.9100 hc         1 7ZD       0.029700
     46 H14         -6.3130     0.7170     0.3830 hc         1 7ZD       0.029700
     47 H15          7.0330    -1.5210     1.2420 h4         1 7ZD      -0.023900
     48 H16         -9.1570    -0.6720    -2.1460 ho         1 7ZD       0.394000
     49 H17          7.9750     0.8380     4.5350 h4         1 7ZD      -0.022900
     50 H18         -3.0880     0.0360    -4.2480 ha         1 7ZD       0.112000
     51 H19         -7.1580     2.9850     0.1530 ha         1 7ZD       0.107500
     52 H20         -9.7030    -0.1940     1.4410 ha         1 7ZD       0.107500
     53 H21         -8.8410     4.6300     0.8880 ha         1 7ZD       0.102000
     54 H22        -11.3840     1.4520     2.1790 ha         1 7ZD       0.102000
     55 H23        -10.9530     3.8640     1.9030 ha         1 7ZD       0.102000
     56 H9           2.3200    -0.8870    -1.3680 ho         1 7ZD       0.411000
     57 C20         -4.1460    -1.4200    -2.2330 c3         1 7ZD       0.113300
@<TRIPOS>BOND
     1     1    13 1   
     2     1    14 1   
     3     1    16 1   
     4     2     4 2   
     5     2    12 1   
     6     2    15 1   
     7     3    12 1   
     8     3    14 2   
     9     3    34 1   
    10     4     5 1   
    11     4    35 1   
    12     5    17 ar  
    13     5    25 ar  
    14     6     8 ar  
    15     6    16 ar  
    16     6    36 1   
    17     7    17 ar  
    18     7    27 ar  
    19     7    39 1   
    20     8    28 ar  
    21     8    57 1   
    22     9    24 1   
    23     9    29 ar  
    24     9    30 ar  
    25    10    11 ar  
    26    10    16 ar  
    27    10    40 1   
    28    11    28 ar  
    29    11    41 1   
    30    12    13 2   
    31    13    21 1   
    32    15    17 1   
    33    15    42 1   
    34    18    19 1   
    35    18    20 1   
    36    18    22 2   
    37    19    43 1   
    38    19    57 1   
    39    20    24 1   
    40    20    26 1   
    41    20    44 1   
    42    21    56 1   
    43    23    25 ar  
    44    23    27 ar  
    45    24    45 1   
    46    24    46 1   
    47    25    47 1   
    48    26    48 1   
    49    27    49 1   
    50    28    50 1   
    51    29    31 ar  
    52    29    51 1   
    53    30    32 ar  
    54    30    52 1   
    55    31    33 ar  
    56    31    53 1   
    57    32    33 ar  
    58    32    54 1   
    59    33    55 1   
    60    37    57 1   
    61    38    57 1   
@<TRIPOS>SUBSTRUCTURE
     1 7ZD         1 TEMP              0 ****  ****    0 ROOT
