@<TRIPOS>MOLECULE
7ZE
   19    20     1     0     0
SMALL
bcc


@<TRIPOS>ATOM
      1 O1           0.0000     0.0000     0.0000 o          1 7ZE      -0.445500
      2 N2           1.2180     0.0000     0.0000 no         1 7ZE       1.048200
      3 O3           1.8270     0.0000     1.0550 o          1 7ZE      -0.445500
      4 C4           1.9580    -0.0070    -1.2820 ca         1 7ZE      -0.425200
      5 C5           3.1090     0.7100    -1.4130 ca         1 7ZE       0.016000
      6 C6           3.8170     0.7130    -2.6130 ca         1 7ZE      -0.128000
      7 C7           3.3800     0.0020    -3.6880 ca         1 7ZE      -0.073300
      8 C8           2.1960    -0.7510    -3.5920 ca         1 7ZE       0.356600
      9 N9           1.7470    -1.4640    -4.6300 nb         1 7ZE      -0.561000
     10 C10          0.6500    -2.1770    -4.5420 ca         1 7ZE       0.415200
     11 C11         -0.1000    -2.2270    -3.3690 ca         1 7ZE      -0.194300
     12 C12          0.3030    -1.5220    -2.2710 ca         1 7ZE      -0.081000
     13 C13          1.4810    -0.7580    -2.3690 ca         1 7ZE      -0.093300
     14 H1           3.4790     1.2840    -0.5730 ha         1 7ZE       0.122000
     15 H2           4.7290     1.2910    -2.6910 ha         1 7ZE       0.117000
     16 H3           3.9430     0.0150    -4.6140 ha         1 7ZE       0.121000
     17 H4           0.3180    -2.7420    -5.4050 h4         1 7ZE      -0.017900
     18 H5          -1.0020    -2.8260    -3.3280 ha         1 7ZE       0.118000
     19 H6          -0.2680    -1.5490    -1.3510 ha         1 7ZE       0.151000
@<TRIPOS>BOND
     1     1     2 1   
     2     2     3 1   
     3     2     4 1   
     4     4     5 ar  
     5     4    13 ar  
     6     5     6 ar  
     7     5    14 1   
     8     6     7 ar  
     9     6    15 1   
    10     7     8 ar  
    11     7    16 1   
    12     8     9 ar  
    13     8    13 ar  
    14     9    10 ar  
    15    10    11 ar  
    16    10    17 1   
    17    11    12 ar  
    18    11    18 1   
    19    12    13 ar  
    20    12    19 1   
@<TRIPOS>SUBSTRUCTURE
     1 7ZE         1 TEMP              0 ****  ****    0 ROOT
