@<TRIPOS>MOLECULE
molecule
   23    24     1     0     0
SMALL
bcc


@<TRIPOS>ATOM
      1 C4           0.0000     0.0000     0.0000 ca         1 7ZF      -0.142500
      2 C5           2.0810     0.0000     1.2040 ca         1 7ZF      -0.142500
      3 C6          -0.0390     2.0090    -3.2390 ca         1 7ZF       0.769900
      4 C7           1.3890     0.0000     0.0000 ca         1 7ZF       0.155600
      5 C8           1.6710     1.1960    -4.5420 ca         1 7ZF       0.996900
      6 N12          2.1720     0.5580    -3.4890 nb         1 7ZF      -0.888000
      7 C1           0.0030     0.0100     2.3950 ca         1 7ZF      -0.146000
      8 C2          -0.6890     0.0050     1.1970 ca         1 7ZF      -0.112000
      9 C3           1.3850    -0.0010     2.3980 ca         1 7ZF      -0.112000
     10 C9           1.5690     0.6570    -2.3100 ca         1 7ZF       0.986900
     11 N10          0.5620     1.9220    -4.4120 nb         1 7ZF      -0.869000
     12 N11          0.4590     1.3810    -2.1890 nb         1 7ZF      -0.865000
     13 N14          2.0890     0.0000    -1.2110 nu         1 7ZF      -0.747300
     14 H1          -0.5420    -0.0020    -0.9380 ha         1 7ZF       0.144000
     15 H2           3.1640    -0.0040     1.2070 ha         1 7ZF       0.144000
     16 H3          -0.9420     2.5990    -3.1370 h5         1 7ZF       0.064100
     17 H4          -0.5400     0.0110     3.3330 ha         1 7ZF       0.129000
     18 H5          -1.7720     0.0090     1.1980 ha         1 7ZF       0.131500
     19 H6           1.9240     0.0010     3.3380 ha         1 7ZF       0.131500
     20 H7           2.7330     0.2480    -6.0440 hn         1 7ZF       0.452300
     21 H8           2.2980     1.8900    -6.3880 hn         1 7ZF       0.452300
     22 H9           2.9650    -0.4780    -1.2820 hn         1 7ZF       0.467800
     23 N13          2.2990     1.1060    -5.7670 nv         1 7ZF      -0.999500
@<TRIPOS>BOND
     1     8     7 ar  
     2     8     1 ar  
     3     7     9 ar  
     4     1     4 ar  
     5     9     2 ar  
     6     4     2 ar  
     7     4    13 1   
     8    13    10 1   
     9    10    12 ar  
    10    10     6 ar  
    11    12     3 ar  
    12     6     5 ar  
    13     3    11 ar  
    14     5    11 ar  
    15     5    23 1   
    16     1    14 1   
    17     2    15 1   
    18     3    16 1   
    19     7    17 1   
    20     8    18 1   
    21     9    19 1   
    22    23    20 1   
    23    23    21 1   
    24    13    22 1   
@<TRIPOS>SUBSTRUCTURE
     1 7ZF         1 TEMP              0 ****  ****    0 ROOT
