@<TRIPOS>MOLECULE
7ZF
   23    24     1     0     0
SMALL
bcc


@<TRIPOS>ATOM
      1 C4           0.0000     0.0000     0.0000 ca         1 7ZF      -0.117000
      2 C5           2.0810     0.0000     1.2040 ca         1 7ZF      -0.117000
      3 C6          -0.0390     2.0090    -3.2390 ca         1 7ZF       0.740900
      4 C7           1.3890     0.0000     0.0000 ca         1 7ZF      -0.008400
      5 C8           1.6710     1.1960    -4.5420 ca         1 7ZF       0.771900
      6 N12          2.1720     0.5580    -3.4890 nb         1 7ZF      -0.797000
      7 C1           0.0030     0.0100     2.3950 ca         1 7ZF      -0.116000
      8 C2          -0.6890     0.0050     1.1970 ca         1 7ZF      -0.082500
      9 C3           1.3850    -0.0010     2.3980 ca         1 7ZF      -0.082500
     10 C9           1.5690     0.6570    -2.3100 ca         1 7ZF       0.759900
     11 N10          0.5620     1.9220    -4.4120 nb         1 7ZF      -0.785000
     12 N11          0.4590     1.3810    -2.1890 nb         1 7ZF      -0.781000
     13 N14          2.0890     0.0000    -1.2110 nu         1 7ZF      -0.269300
     14 H1          -0.5420    -0.0020    -0.9380 ha         1 7ZF       0.120000
     15 H2           3.1640    -0.0040     1.2070 ha         1 7ZF       0.120000
     16 H3          -0.9420     2.5990    -3.1370 h5         1 7ZF      -0.001900
     17 H4          -0.5400     0.0110     3.3330 ha         1 7ZF       0.102000
     18 H5          -1.7720     0.0090     1.1980 ha         1 7ZF       0.102000
     19 H6           1.9240     0.0010     3.3380 ha         1 7ZF       0.102000
     20 H7           2.7330     0.2480    -6.0440 hn         1 7ZF       0.276800
     21 H8           2.2980     1.8900    -6.3880 hn         1 7ZF       0.276800
     22 H9           2.9650    -0.4780    -1.2820 hn         1 7ZF       0.292800
     23 N13          2.2990     1.1060    -5.7670 nv         1 7ZF      -0.508500
@<TRIPOS>BOND
     1     1     4 ar  
     2     1     8 ar  
     3     1    14 1   
     4     2     4 ar  
     5     2     9 ar  
     6     2    15 1   
     7     3    11 ar  
     8     3    12 ar  
     9     3    16 1   
    10     4    13 1   
    11     5     6 ar  
    12     5    11 ar  
    13     5    23 1   
    14     6    10 ar  
    15     7     8 ar  
    16     7     9 ar  
    17     7    17 1   
    18     8    18 1   
    19     9    19 1   
    20    10    12 ar  
    21    10    13 1   
    22    13    22 1   
    23    20    23 1   
    24    21    23 1   
@<TRIPOS>SUBSTRUCTURE
     1 7ZF         1 TEMP              0 ****  ****    0 ROOT
