@<TRIPOS>MOLECULE
molecule
   34    36     1     0     0
SMALL
bcc


@<TRIPOS>ATOM
      1 N1           0.0000     0.0000     0.0000 na         1 7ZG      -0.277300
      2 N3           0.6370    -0.0010     2.0950 nc         1 7ZG      -0.607100
      3 C4           1.3850     0.0000     0.0000 ca         1 7ZG      -0.074200
      4 C5           1.7750     0.0000     1.3510 ca         1 7ZG       0.082400
      5 C6           4.4420     0.6750    -2.8180 c          1 7ZG       0.653100
      6 C7           2.3460     0.0010    -0.9990 ca         1 7ZG      -0.125000
      7 C13          5.5270     0.7630    -3.8600 c3         1 7ZG      -0.109100
      8 C15          5.2090     2.9330    -5.0660 ca         1 7ZG      -0.103000
      9 C17          4.7580     3.6660    -6.1500 ca         1 7ZG       0.032400
     10 C20          4.3940     0.9260    -6.0870 ca         1 7ZG      -0.110000
     11 C21          4.1260     3.0270    -7.2030 ca         1 7ZG      -0.118000
     12 C2          -0.4060    -0.0010     1.3040 cd         1 7ZG       0.637700
     13 C9           3.6900     0.0030    -0.6620 ca         1 7ZG       0.058600
     14 O10          3.3700     1.2090    -3.0120 o          1 7ZG      -0.580100
     15 N11         -1.7200     0.0030     1.7250 nv         1 7ZG      -1.008800
     16 C12          3.1330    -0.0000     1.6760 ca         1 7ZG      -0.057000
     17 C14          5.0300     1.5620    -5.0370 ca         1 7ZG      -0.060300
     18 C16          4.0790     0.0030     0.6750 ca         1 7ZG      -0.176000
     19 C19          3.9470     1.6560    -7.1710 ca         1 7ZG      -0.118000
     20 H1          -0.5930     0.0000    -0.8060 hn         1 7ZG       0.301700
     21 H3           2.0480    -0.0890    -2.0370 ha         1 7ZG       0.158000
     22 H4           5.7940    -0.2340    -4.1880 hc         1 7ZG       0.069700
     23 H5           6.3970     1.2490    -3.4350 hc         1 7ZG       0.069700
     24 H6           5.7040     3.4320    -4.2420 ha         1 7ZG       0.144000
     25 H7           4.2530    -0.1480    -6.0630 ha         1 7ZG       0.132000
     26 H8           3.7740     3.6000    -8.0520 ha         1 7ZG       0.143000
     27 H9           5.5620    -0.3990    -1.4950 hn         1 7ZG       0.322500
     28 H10         -2.1970    -0.8620     1.8870 hn         1 7ZG       0.444800
     29 H11         -2.1890     0.8720     1.8930 hn         1 7ZG       0.444800
     30 H12          3.4430    -0.0000     2.7140 ha         1 7ZG       0.144000
     31 H13          5.1320     0.0040     0.9300 ha         1 7ZG       0.130000
     32 H14          3.4510     1.1560    -7.9930 ha         1 7ZG       0.137000
     33 N8           4.6620     0.0040    -1.6710 ns         1 7ZG      -0.474100
     34 Cl1          4.9830     5.3870    -6.1890 cl         1 7ZG      -0.109400
@<TRIPOS>BOND
     1    34     9 1   
     2    11     9 ar  
     3    11    19 ar  
     4     9     8 ar  
     5    19    10 ar  
     6     8    17 ar  
     7    10    17 ar  
     8    17     7 1   
     9     7     5 1   
    10    33     5 1   
    11    33    13 1   
    12     5    14 2   
    13    18    13 ar  
    14    18    16 ar  
    15    13     6 ar  
    16    16     4 ar  
    17     6     3 ar  
    18     4     3 ar  
    19     4     2 1   
    20     3     1 1   
    21     2    12 2   
    22     1    12 1   
    23    12    15 1   
    24     1    20 1   
    25     6    21 1   
    26     7    22 1   
    27     7    23 1   
    28     8    24 1   
    29    10    25 1   
    30    11    26 1   
    31    33    27 1   
    32    15    28 1   
    33    15    29 1   
    34    16    30 1   
    35    18    31 1   
    36    19    32 1   
@<TRIPOS>SUBSTRUCTURE
     1 7ZG         1 TEMP              0 ****  ****    0 ROOT
