@<TRIPOS>MOLECULE
molecule
   50    52     1     0     0
SMALL
bcc


@<TRIPOS>ATOM
      1 N3           0.0000     0.0000     0.0000 na         1 7ZJ      -0.279300
      2 C4           1.3660     0.0000     0.0000 cc         1 7ZJ       0.646700
      3 C6          -0.4120     0.0070     1.3220 ca         1 7ZJ      -0.075200
      4 C7          -8.8530    -0.5440     0.3140 c3         1 7ZJ       0.157800
      5 C8           0.7610     0.0100     2.0960 ca         1 7ZJ       0.089400
      6 C10         -4.0200     0.6620     3.3820 c          1 7ZJ       0.650100
      7 C17         -7.0450     0.7670     2.1260 ca         1 7ZJ      -0.160000
      8 C21         -6.3680     1.3680     3.1690 ca         1 7ZJ      -0.027300
      9 C22          0.6680     0.0170     3.4900 ca         1 7ZJ      -0.048000
     10 C24        -10.8000     2.4170    -0.4040 c3         1 7ZJ      -0.249300
     11 C26         -0.5680     0.0210     4.0950 ca         1 7ZJ      -0.174000
     12 C28         -7.4680     3.4450     2.6940 ca         1 7ZJ      -0.073000
     13 S1          -9.1780     1.8220    -0.9560 s6         1 7ZJ       1.306900
     14 N5           1.8110     0.0000     1.2310 nd         1 7ZJ      -0.601100
     15 C9          -7.9370     1.5080     1.3620 ca         1 7ZJ       0.124600
     16 C11        -10.0970    -0.8510     1.1070 c          1 7ZJ       0.445100
     17 C12         -1.6510     0.0100     1.9420 ca         1 7ZJ      -0.132000
     18 O13         -9.3230     0.8980    -2.0250 o          1 7ZJ      -0.592800
     19 O14         -8.2530     2.8980    -1.0380 o          1 7ZJ      -0.592800
     20 C16         -1.7290     0.0180     3.3260 ca         1 7ZJ       0.051600
     21 O18         -3.8490     1.3160     2.3750 o          1 7ZJ      -0.574100
     22 O19        -10.7300     0.0500     1.6160 o          1 7ZJ      -0.391100
     23 N20          2.1590    -0.0010    -1.1290 nv         1 7ZJ      -1.007800
     24 C23         -5.3940     0.5680     3.9950 c3         1 7ZJ      -0.117100
     25 N25        -10.5060    -2.1270     1.2520 nz         1 7ZJ      -0.685400
     26 C27         -8.1480     2.8500     1.6500 ca         1 7ZJ      -0.139000
     27 C29         -6.5840     2.7030     3.4570 ca         1 7ZJ      -0.107000
     28 H1          -0.5930     0.0000    -0.8060 hn         1 7ZJ       0.300700
     29 H2          -8.9770    -0.8960    -0.7030 h1         1 7ZJ       0.120700
     30 H3          -8.0040    -1.0410     0.7680 h1         1 7ZJ       0.120700
     31 H4          -6.8320    -0.2620     1.8630 ha         1 7ZJ       0.115000
     32 H5           1.5680     0.0190     4.0930 ha         1 7ZJ       0.152000
     33 H6         -10.8210     2.4570     0.6780 h1         1 7ZJ       0.109700
     34 H7         -11.5710     1.7420    -0.7550 h1         1 7ZJ       0.109700
     35 H8         -10.9770     3.4070    -0.8060 h1         1 7ZJ       0.109700
     36 H9          -0.6390     0.0270     5.1760 ha         1 7ZJ       0.133000
     37 H10         -7.6330     4.4910     2.9220 ha         1 7ZJ       0.156000
     38 H12         -2.5560     0.0080     1.3470 ha         1 7ZJ       0.147000
     39 H13         -3.0770    -0.3550     4.8770 hn         1 7ZJ       0.324500
     40 H14          2.4880     0.8640    -1.5100 hn         1 7ZJ       0.448800
     41 H15          2.4260    -0.8680    -1.5520 hn         1 7ZJ       0.448800
     42 H16         -5.7090    -0.4680     4.0200 hc         1 7ZJ       0.068700
     43 H17         -5.3680     0.9620     5.0040 hc         1 7ZJ       0.068700
     44 H18         -9.8430    -2.6280     1.8090 hn         1 7ZJ       0.478800
     45 H19        -11.3990    -2.1420     1.7030 hn         1 7ZJ       0.478800
     46 H20         -8.8420     3.4310     1.0540 ha         1 7ZJ       0.139000
     47 H21         -6.0520     3.1720     4.2760 ha         1 7ZJ       0.151000
     48 N15         -2.9820     0.0210     3.9540 ns         1 7ZJ      -0.469100
     49 N2          -8.6240     0.9030     0.3060 nh         1 7ZJ      -0.640900
     50 H253       -10.5730    -2.5600     0.3520 hn         1 7ZJ       0.478800
@<TRIPOS>BOND
     1    25    16 1   
     2    22    16 2   
     3    16     4 1   
     4     4    49 1   
     5    18    13 2   
     6    49    15 1   
     7    49    13 1   
     8    26    15 ar  
     9    26    12 ar  
    10    15     7 ar  
    11    13    19 2   
    12    13    10 1   
    13    12    27 ar  
    14     7     8 ar  
    15    27     8 ar  
    16     8    24 1   
    17    24     6 1   
    18    48     6 1   
    19    48    20 1   
    20     6    21 2   
    21    11    20 ar  
    22    11     9 ar  
    23    20    17 ar  
    24     9     5 ar  
    25    17     3 ar  
    26     5     3 ar  
    27     5    14 1   
    28     3     1 1   
    29    14     2 2   
    30     1     2 1   
    31     2    23 1   
    32     1    28 1   
    33     4    29 1   
    34     4    30 1   
    35     7    31 1   
    36     9    32 1   
    37    10    33 1   
    38    10    34 1   
    39    10    35 1   
    40    11    36 1   
    41    12    37 1   
    42    17    38 1   
    43    48    39 1   
    44    23    40 1   
    45    23    41 1   
    46    24    42 1   
    47    24    43 1   
    48    25    44 1   
    49    25    45 1   
    50    26    46 1   
    51    27    47 1   
    52    50    25 1   
@<TRIPOS>SUBSTRUCTURE
     1 7ZJ         1 TEMP              0 ****  ****    0 ROOT
