@<TRIPOS>MOLECULE
7ZJ
   50    52     1     0     0
SMALL
bcc


@<TRIPOS>ATOM
      1 N3           0.0000     0.0000     0.0000 na         1 7ZJ       0.243700
      2 C4           1.3660     0.0000     0.0000 cc         1 7ZJ       0.303700
      3 C6          -0.4120     0.0070     1.3220 ca         1 7ZJ      -0.252200
      4 C7          -8.8530    -0.5440     0.3140 c3         1 7ZJ       0.141800
      5 C8           0.7610     0.0100     2.0960 ca         1 7ZJ       0.063400
      6 C10         -4.0200     0.6620     3.3820 c          1 7ZJ       0.547100
      7 C17         -7.0450     0.7670     2.1260 ca         1 7ZJ      -0.153000
      8 C21         -6.3680     1.3680     3.1690 ca         1 7ZJ      -0.024300
      9 C22          0.6680     0.0170     3.4900 ca         1 7ZJ      -0.011000
     10 C24        -10.8000     2.4170    -0.4040 c3         1 7ZJ       0.003700
     11 C26         -0.5680     0.0210     4.0950 ca         1 7ZJ      -0.147000
     12 C28         -7.4680     3.4450     2.6940 ca         1 7ZJ      -0.040000
     13 S1          -9.1780     1.8220    -0.9560 s6         1 7ZJ       0.959900
     14 N5           1.8110     0.0000     1.2310 nd         1 7ZJ      -0.518100
     15 C9          -7.9370     1.5080     1.3620 ca         1 7ZJ       0.054600
     16 C11        -10.0970    -0.8510     1.1070 c          1 7ZJ       0.280100
     17 C12         -1.6510     0.0100     1.9420 ca         1 7ZJ      -0.088000
     18 O13         -9.3230     0.8980    -2.0250 o          1 7ZJ      -0.554300
     19 O14         -8.2530     2.8980    -1.0380 o          1 7ZJ      -0.554300
     20 C16         -1.7290     0.0180     3.3260 ca         1 7ZJ      -0.101400
     21 O18         -3.8490     1.3160     2.3750 o          1 7ZJ      -0.621100
     22 O19        -10.7300     0.0500     1.6160 o          1 7ZJ      -0.404100
     23 N20          2.1590    -0.0010    -1.1290 nv         1 7ZJ      -0.557800
     24 C23         -5.3940     0.5680     3.9950 c3         1 7ZJ      -0.046100
     25 N25        -10.5060    -2.1270     1.2520 nz         1 7ZJ       0.196600
     26 C27         -8.1480     2.8500     1.6500 ca         1 7ZJ      -0.123000
     27 C29         -6.5840     2.7030     3.4570 ca         1 7ZJ      -0.082000
     28 H1          -0.5930     0.0000    -0.8060 hn         1 7ZJ       0.126700
     29 H2          -8.9770    -0.8960    -0.7030 h1         1 7ZJ       0.081700
     30 H3          -8.0040    -1.0410     0.7680 h1         1 7ZJ       0.081700
     31 H4          -6.8320    -0.2620     1.8630 ha         1 7ZJ       0.096000
     32 H5           1.5680     0.0190     4.0930 ha         1 7ZJ       0.115000
     33 H6         -10.8210     2.4570     0.6780 h1         1 7ZJ       0.074367
     34 H7         -11.5710     1.7420    -0.7550 h1         1 7ZJ       0.074367
     35 H8         -10.9770     3.4070    -0.8060 h1         1 7ZJ       0.074367
     36 H9          -0.6390     0.0270     5.1760 ha         1 7ZJ       0.107000
     37 H10         -7.6330     4.4910     2.9220 ha         1 7ZJ       0.117000
     38 H12         -2.5560     0.0080     1.3470 ha         1 7ZJ       0.128000
     39 H13         -3.0770    -0.3550     4.8770 hn         1 7ZJ       0.165500
     40 H14          2.4880     0.8640    -1.5100 hn         1 7ZJ       0.277800
     41 H15          2.4260    -0.8680    -1.5520 hn         1 7ZJ       0.277800
     42 H16         -5.7090    -0.4680     4.0200 hc         1 7ZJ       0.029700
     43 H17         -5.3680     0.9620     5.0040 hc         1 7ZJ       0.029700
     44 H18         -9.8430    -2.6280     1.8090 hn         1 7ZJ       0.247467
     45 H19        -11.3990    -2.1420     1.7030 hn         1 7ZJ       0.247467
     46 H20         -8.8420     3.4310     1.0540 ha         1 7ZJ       0.122000
     47 H21         -6.0520     3.1720     4.2760 ha         1 7ZJ       0.119000
     48 N15         -2.9820     0.0210     3.9540 ns         1 7ZJ      -0.021100
     49 N2          -8.6240     0.9030     0.3060 nh         1 7ZJ      -0.335900
     50 H253       -10.5730    -2.5600     0.3520 hn         1 7ZJ       0.247467
@<TRIPOS>BOND
     1     1     2 1   
     2     1     3 1   
     3     1    28 1   
     4     2    14 2   
     5     2    23 1   
     6     3     5 ar  
     7     3    17 ar  
     8     4    16 1   
     9     4    29 1   
    10     4    30 1   
    11     4    49 1   
    12     5     9 ar  
    13     5    14 1   
    14     6    21 2   
    15     6    24 1   
    16     6    48 1   
    17     7     8 ar  
    18     7    15 ar  
    19     7    31 1   
    20     8    24 1   
    21     8    27 ar  
    22     9    11 ar  
    23     9    32 1   
    24    10    13 1   
    25    10    33 1   
    26    10    34 1   
    27    10    35 1   
    28    11    20 ar  
    29    11    36 1   
    30    12    26 ar  
    31    12    27 ar  
    32    12    37 1   
    33    13    18 2   
    34    13    19 2   
    35    13    49 1   
    36    15    26 ar  
    37    15    49 1   
    38    16    22 2   
    39    16    25 1   
    40    17    20 ar  
    41    17    38 1   
    42    20    48 1   
    43    23    40 1   
    44    23    41 1   
    45    24    42 1   
    46    24    43 1   
    47    25    44 1   
    48    25    45 1   
    49    25    50 1   
    50    26    46 1   
    51    27    47 1   
    52    39    48 1   
@<TRIPOS>SUBSTRUCTURE
     1 7ZJ         1 TEMP              0 ****  ****    0 ROOT
