@<TRIPOS>MOLECULE
7ZL
   24    25     1     0     0
SMALL
bcc


@<TRIPOS>ATOM
      1 C4           0.0000     0.0000     0.0000 ca         1 7ZL      -0.118500
      2 C5           2.0800     0.0000     1.2060 ca         1 7ZL      -0.118500
      3 C6           1.6930    -1.3350    -4.5990 ca         1 7ZL       0.528200
      4 C7           1.3890     0.0000     0.0000 ca         1 7ZL      -0.002400
      5 C8           2.2220    -0.6160    -3.5440 ca         1 7ZL      -0.414200
      6 C10          0.0450    -2.1490    -3.2070 ca         1 7ZL       0.745900
      7 N12          0.5170    -1.4710    -2.1710 nb         1 7ZL      -0.734000
      8 C1           0.0020     0.0060     2.3940 ca         1 7ZL      -0.118000
      9 C2          -0.6890     0.0050     1.1960 ca         1 7ZL      -0.082000
     10 C3           1.3850    -0.0000     2.3980 ca         1 7ZL      -0.082000
     11 C9           1.5950    -0.7040    -2.2970 ca         1 7ZL       0.567200
     12 N11          0.6160    -2.0800    -4.4000 nb         1 7ZL      -0.720000
     13 N14          2.0910    -0.0010    -1.2100 nu         1 7ZL      -0.297300
     14 Cl1          3.6330     0.3720    -3.7600 cl         1 7ZL      -0.006400
     15 H1          -0.5420    -0.0000    -0.9380 ha         1 7ZL       0.118000
     16 H2           3.1640    -0.0020     1.2100 ha         1 7ZL       0.118000
     17 H3           2.1530    -1.2880    -5.5780 h4         1 7ZL      -0.012900
     18 H4          -0.5420     0.0080     3.3310 ha         1 7ZL       0.102000
     19 H5          -1.7720     0.0080     1.1970 ha         1 7ZL       0.102000
     20 H6           1.9230     0.0000     3.3380 ha         1 7ZL       0.102000
     21 H7          -1.7580    -3.0030    -3.7720 hn         1 7ZL       0.276300
     22 H8          -1.2140    -3.4420    -2.1860 hn         1 7ZL       0.276300
     23 H9           2.9810     0.4520    -1.2710 hn         1 7ZL       0.295800
     24 N13         -1.0790    -2.9390    -3.0400 nv         1 7ZL      -0.525500
@<TRIPOS>BOND
     1     1     4 ar  
     2     1     9 ar  
     3     1    15 1   
     4     2     4 ar  
     5     2    10 ar  
     6     2    16 1   
     7     3     5 ar  
     8     3    12 ar  
     9     3    17 1   
    10     4    13 1   
    11     5    11 ar  
    12     5    14 1   
    13     6     7 ar  
    14     6    12 ar  
    15     6    24 1   
    16     7    11 ar  
    17     8     9 ar  
    18     8    10 ar  
    19     8    18 1   
    20     9    19 1   
    21    10    20 1   
    22    11    13 1   
    23    13    23 1   
    24    21    24 1   
    25    22    24 1   
@<TRIPOS>SUBSTRUCTURE
     1 7ZL         1 TEMP              0 ****  ****    0 ROOT
