@<TRIPOS>MOLECULE
molecule
   24    25     1     0     0
SMALL
bcc


@<TRIPOS>ATOM
      1 C4           0.0000     0.0000     0.0000 ca         1 7ZL      -0.143000
      2 C5           2.0800     0.0000     1.2060 ca         1 7ZL      -0.143000
      3 C6           1.6930    -1.3350    -4.5990 ca         1 7ZL       0.532200
      4 C7           1.3890     0.0000     0.0000 ca         1 7ZL       0.152600
      5 C8           2.2220    -0.6160    -3.5440 ca         1 7ZL      -0.335200
      6 C10          0.0450    -2.1490    -3.2070 ca         1 7ZL       0.974900
      7 N12          0.5170    -1.4710    -2.1710 nb         1 7ZL      -0.835000
      8 C1           0.0020     0.0060     2.3940 ca         1 7ZL      -0.147000
      9 C2          -0.6890     0.0050     1.1960 ca         1 7ZL      -0.112000
     10 C3           1.3850    -0.0000     2.3980 ca         1 7ZL      -0.112000
     11 C9           1.5950    -0.7040    -2.2970 ca         1 7ZL       0.762200
     12 N11          0.6160    -2.0800    -4.4000 nb         1 7ZL      -0.811000
     13 N14          2.0910    -0.0010    -1.2100 nu         1 7ZL      -0.759300
     14 Cl1          3.6330     0.3720    -3.7600 cl         1 7ZL      -0.104400
     15 H1          -0.5420    -0.0000    -0.9380 ha         1 7ZL       0.142500
     16 H2           3.1640    -0.0020     1.2100 ha         1 7ZL       0.142500
     17 H3           2.1530    -1.2880    -5.5780 h4         1 7ZL       0.040100
     18 H4          -0.5420     0.0080     3.3310 ha         1 7ZL       0.129000
     19 H5          -1.7720     0.0080     1.1970 ha         1 7ZL       0.131000
     20 H6           1.9230     0.0000     3.3380 ha         1 7ZL       0.131000
     21 H7          -1.7580    -3.0030    -3.7720 hn         1 7ZL       0.451300
     22 H8          -1.2140    -3.4420    -2.1860 hn         1 7ZL       0.451300
     23 H9           2.9810     0.4520    -1.2710 hn         1 7ZL       0.468800
     24 N13         -1.0790    -2.9390    -3.0400 nv         1 7ZL      -1.005500
@<TRIPOS>BOND
     1    10     8 ar
     2    10     2 ar
     3     8     9 ar
     4     2     4 ar
     5     9     1 ar
     6     4     1 ar
     7     4    13 1
     8    13    11 1
     9    11     7 ar
    10    11     5 ar
    11    14     5 1
    12     7     6 ar
    13     5     3 ar
    14     6    24 1
    15     6    12 ar
    16     3    12 ar
    17     1    15 1
    18     2    16 1
    19     3    17 1
    20     8    18 1
    21     9    19 1
    22    10    20 1
    23    24    21 1
    24    24    22 1
    25    13    23 1
@<TRIPOS>SUBSTRUCTURE
     1 7ZL         1 TEMP              0 ****  ****    0 ROOT
