@<TRIPOS>MOLECULE
molecule
   35    37     1     0     0
SMALL
bcc


@<TRIPOS>ATOM
      1 N3           0.0000     0.0000     0.0000 na         1 7ZM       0.146300
      2 C5           3.1450    -0.0000     1.8150 c          1 7ZM       0.711700
      3 C6           0.5880     0.0020     2.1220 cc         1 7ZM       0.365200
      4 C10          7.2530    -0.2810     4.5740 ca         1 7ZM       0.689200
      5 C13          4.7120    -0.1110     3.6040 ca         1 7ZM      -0.125700
      6 C17          5.6470    -0.8670     2.9000 ca         1 7ZM      -0.050000
      7 C20         -2.8290    -0.6770    -2.2530 ca         1 7ZM      -0.118000
      8 C21         -1.2400     0.7100    -3.3900 ca         1 7ZM      -0.118000
      9 C22         -2.4380     0.0190    -3.3820 ca         1 7ZM      -0.125000
     10 C1           1.7590     0.0000     1.3280 cd         1 7ZM      -0.399900
     11 C2           1.3500     0.0000     0.0000 cc         1 7ZM       0.187800
     12 N4          -0.4440     0.0020     1.3260 nd         1 7ZM      -0.493800
     13 N7           3.3950     0.0010     3.1390 ns         1 7ZM      -0.467100
     14 N8           6.3360     0.4200     5.2210 nb         1 7ZM      -0.749000
     15 C9          -0.8190     0.0050    -1.1380 ca         1 7ZM       0.007800
     16 O11          4.0690     0.0000     1.0220 o          1 7ZM      -0.607100
     17 O12          2.1540    -0.0020    -1.0890 oh         1 7ZM      -0.470100
     18 C14          5.0980     0.5210     4.7770 ca         1 7ZM       0.440200
     19 C16          6.9370    -0.9460     3.3940 ca         1 7ZM      -0.307300
     20 C18         -2.0250    -0.6830    -1.1300 ca         1 7ZM      -0.121000
     21 C19         -0.4310     0.7080    -2.2720 ca         1 7ZM      -0.121000
     22 H1           0.5550     0.0030     3.2050 h4         1 7ZM       0.050100
     23 H2           5.3720    -1.3740     1.9830 ha         1 7ZM       0.165000
     24 H3          -3.7690    -1.2160    -2.2480 ha         1 7ZM       0.139500
     25 H4          -0.9370     1.2560    -4.2760 ha         1 7ZM       0.139500
     26 H5          -3.0710     0.0220    -4.2610 ha         1 7ZM       0.135000
     27 H7           2.6390     0.0760     3.7910 hn         1 7ZM       0.320500
     28 H8           4.3750     1.1070     5.3320 h4         1 7ZM       0.019100
     29 H9           8.7800     0.1170     5.9300 hn         1 7ZM       0.438300
     30 H10          9.2430    -0.8880     4.5970 hn         1 7ZM       0.438300
     31 H11          7.6910    -1.5220     2.8700 ha         1 7ZM       0.137000
     32 H12         -2.3320    -1.2290    -0.2460 ha         1 7ZM       0.155500
     33 H13          0.5070     1.2490    -2.2800 ha         1 7ZM       0.155500
     34 H6           2.4610    -0.8780    -1.2510 ho         1 7ZM       0.446000
     35 N15          8.5460    -0.3590     5.0820 nv         1 7ZM      -1.015500
@<TRIPOS>BOND
     1     9     8 ar
     2     9     7 ar
     3     8    21 ar
     4     7    20 ar
     5    21    15 ar
     6    20    15 ar
     7    15     1 1
     8     1    11 1
     9     1    12 1
    10    17    11 1
    11    11    10 2
    12    12     3 2
    13    10     3 1
    14    10     2 1
    15    13     2 1
    16    13     5 1
    17     2    16 2
    18     6     5 ar
    19     6    19 ar
    20     5    18 ar
    21    19     4 ar
    22    18    14 ar
    23     4    14 ar
    24     4    35 1
    25     3    22 1
    26     6    23 1
    27     7    24 1
    28     8    25 1
    29     9    26 1
    30    13    27 1
    31    18    28 1
    32    35    29 1
    33    35    30 1
    34    19    31 1
    35    20    32 1
    36    21    33 1
    37    17    34 1
@<TRIPOS>SUBSTRUCTURE
     1 7ZM         1 TEMP              0 ****  ****    0 ROOT
