@<TRIPOS>MOLECULE
7ZM
   35    37     1     0     0
SMALL
bcc


@<TRIPOS>ATOM
      1 N3           0.0000     0.0000     0.0000 na         1 7ZM       0.616300
      2 C5           3.1450    -0.0000     1.8150 c          1 7ZM       0.630700
      3 C6           0.5880     0.0020     2.1220 cc         1 7ZM       0.431200
      4 C10          7.2530    -0.2810     4.5740 ca         1 7ZM       0.497200
      5 C13          4.7120    -0.1110     3.6040 ca         1 7ZM      -0.275700
      6 C17          5.6470    -0.8670     2.9000 ca         1 7ZM      -0.016000
      7 C20         -2.8290    -0.6770    -2.2530 ca         1 7ZM      -0.092500
      8 C21         -1.2400     0.7100    -3.3900 ca         1 7ZM      -0.092500
      9 C22         -2.4380     0.0190    -3.3820 ca         1 7ZM      -0.088000
     10 C1           1.7590     0.0000     1.3280 cc         1 7ZM      -0.439900
     11 C2           1.3500     0.0000     0.0000 cd         1 7ZM       0.037800
     12 N4          -0.4440     0.0020     1.3260 nd         1 7ZM      -0.655800
     13 N7           3.3950     0.0010     3.1390 ns         1 7ZM      -0.018100
     14 N8           6.3360     0.4200     5.2210 nb         1 7ZM      -0.640000
     15 C9          -0.8190     0.0050    -1.1380 ca         1 7ZM      -0.167200
     16 O11          4.0690     0.0000     1.0220 o          1 7ZM      -0.654100
     17 O12          2.1540    -0.0020    -1.0890 oh         1 7ZM      -0.447100
     18 C14          5.0980     0.5210     4.7770 ca         1 7ZM       0.428200
     19 C16          6.9370    -0.9460     3.3940 ca         1 7ZM      -0.287300
     20 C18         -2.0250    -0.6830    -1.1300 ca         1 7ZM      -0.083500
     21 C19         -0.4310     0.7080    -2.2720 ca         1 7ZM      -0.083500
     22 H1           0.5550     0.0030     3.2050 h4         1 7ZM       0.003100
     23 H2           5.3720    -1.3740     1.9830 ha         1 7ZM       0.138000
     24 H3          -3.7690    -1.2160    -2.2480 ha         1 7ZM       0.109500
     25 H4          -0.9370     1.2560    -4.2760 ha         1 7ZM       0.109500
     26 H5          -3.0710     0.0220    -4.2610 ha         1 7ZM       0.106000
     27 H7           2.6390     0.0760     3.7910 hn         1 7ZM       0.163500
     28 H8           4.3750     1.1070     5.3320 h4         1 7ZM      -0.024900
     29 H9           8.7800     0.1170     5.9300 hn         1 7ZM       0.269300
     30 H10          9.2430    -0.8880     4.5970 hn         1 7ZM       0.269300
     31 H11          7.6910    -1.5220     2.8700 ha         1 7ZM       0.116000
     32 H12         -2.3320    -1.2290    -0.2460 ha         1 7ZM       0.128000
     33 H13          0.5070     1.2490    -2.2800 ha         1 7ZM       0.128000
     34 H6           2.4610    -0.8780    -1.2510 ho         1 7ZM       0.421000
     35 N15          8.5460    -0.3590     5.0820 nv         1 7ZM      -0.535500
@<TRIPOS>BOND
     1     1    11 1   
     2     1    12 1   
     3     1    15 1   
     4     2    10 1   
     5     2    13 1   
     6     2    16 2   
     7     3    10 1   
     8     3    12 2   
     9     3    22 1   
    10     4    14 ar  
    11     4    19 ar  
    12     4    35 1   
    13     5     6 ar  
    14     5    13 1   
    15     5    18 ar  
    16     6    19 ar  
    17     6    23 1   
    18     7     9 ar  
    19     7    20 ar  
    20     7    24 1   
    21     8     9 ar  
    22     8    21 ar  
    23     8    25 1   
    24     9    26 1   
    25    10    11 2   
    26    11    17 1   
    27    13    27 1   
    28    14    18 ar  
    29    15    20 ar  
    30    15    21 ar  
    31    17    34 1   
    32    18    28 1   
    33    19    31 1   
    34    20    32 1   
    35    21    33 1   
    36    29    35 1   
    37    30    35 1   
@<TRIPOS>SUBSTRUCTURE
     1 7ZM         1 TEMP              0 ****  ****    0 ROOT
