@<TRIPOS>MOLECULE
7ZO
   27    29     1     0     0
SMALL
bcc


@<TRIPOS>ATOM
      1 C4           0.0000     0.0000     0.0000 ca         1 7ZO       0.497200
      2 C5           0.0080    -0.0060     2.3000 ca         1 7ZO       0.677900
      3 C6           4.1790     1.0230     4.7300 ca         1 7ZO      -0.128300
      4 C7           5.3820     0.3690     4.9620 ca         1 7ZO      -0.115400
      5 C8           4.0830     0.1190     2.5160 ca         1 7ZO      -0.028400
      6 C10          2.0450     0.0000     1.2300 ca         1 7ZO       0.532200
      7 C1           5.9320    -0.4160     3.9500 ca         1 7ZO      -0.097000
      8 C2           5.2870    -0.5380     2.7390 ca         1 7ZO      -0.100000
      9 C3           3.5320     0.9040     3.5220 ca         1 7ZO      -0.047000
     10 C9           1.3820     0.0000     0.0000 ca         1 7ZO      -0.370200
     11 C11          5.0130     1.4650     6.9210 c          1 7ZO       0.608500
     12 C12          3.8570     1.7830     5.9970 c3         1 7ZO      -0.047100
     13 N13         -0.6460     0.0000     1.1570 nb         1 7ZO      -0.674000
     14 N14          1.3250    -0.0110     2.3480 nb         1 7ZO      -0.689000
     15 N15          5.8410     0.6440     6.2540 ns         1 7ZO      -0.008100
     16 N16          3.4300    -0.0070     1.2840 nu         1 7ZO      -0.288300
     17 O17          5.1620     1.8720     8.0540 o          1 7ZO      -0.650500
     18 Cl1          2.2720     0.0000    -1.4900 cl         1 7ZO       0.005600
     19 H1          -0.5480     0.0030    -0.9340 h4         1 7ZO      -0.007900
     20 H2          -0.5530    -0.0100     3.2270 h5         1 7ZO       0.000100
     21 H3           6.8700    -0.9320     4.1170 ha         1 7ZO       0.107000
     22 H4           5.7200    -1.1500     1.9570 ha         1 7ZO       0.108000
     23 H5           2.5930     1.4190     3.3560 ha         1 7ZO       0.135000
     24 H6           2.9250     1.4310     6.4220 hc         1 7ZO       0.054700
     25 H7           3.8130     2.8470     5.7980 hc         1 7ZO       0.054700
     26 H8           6.6900     0.2770     6.6350 hn         1 7ZO       0.175500
     27 H9           3.9630    -0.0820     0.4410 hn         1 7ZO       0.295800
@<TRIPOS>BOND
     1     1    10 ar  
     2     1    13 ar  
     3     1    19 1   
     4     2    13 ar  
     5     2    14 ar  
     6     2    20 1   
     7     3     4 ar  
     8     3     9 ar  
     9     3    12 1   
    10     4     7 ar  
    11     4    15 1   
    12     5     8 ar  
    13     5     9 ar  
    14     5    16 1   
    15     6    10 ar  
    16     6    14 ar  
    17     6    16 1   
    18     7     8 ar  
    19     7    21 1   
    20     8    22 1   
    21     9    23 1   
    22    10    18 1   
    23    11    12 1   
    24    11    15 1   
    25    11    17 2   
    26    12    24 1   
    27    12    25 1   
    28    15    26 1   
    29    16    27 1   
@<TRIPOS>SUBSTRUCTURE
     1 7ZO         1 TEMP              0 ****  ****    0 ROOT
