@<TRIPOS>MOLECULE
molecule
   27    29     1     0     0
SMALL
bcc


@<TRIPOS>ATOM
      1 C4           0.0000     0.0000     0.0000 ca         1 7ZO       0.503200
      2 C5           0.0080    -0.0060     2.3000 ca         1 7ZO       0.720900
      3 C6           4.1790     1.0230     4.7300 ca         1 7ZO      -0.128300
      4 C7           5.3820     0.3690     4.9620 ca         1 7ZO       0.036600
      5 C8           4.0830     0.1190     2.5160 ca         1 7ZO       0.127600
      6 C10          2.0450     0.0000     1.2300 ca         1 7ZO       0.730200
      7 C1           5.9320    -0.4160     3.9500 ca         1 7ZO      -0.138000
      8 C2           5.2870    -0.5380     2.7390 ca         1 7ZO      -0.127000
      9 C3           3.5320     0.9040     3.5220 ca         1 7ZO      -0.075000
     10 C9           1.3820     0.0000     0.0000 ca         1 7ZO      -0.293200
     11 C11          5.0130     1.4650     6.9210 c          1 7ZO       0.708500
     12 C12          3.8570     1.7830     5.9970 c3         1 7ZO      -0.120100
     13 N13         -0.6460     0.0000     1.1570 nb         1 7ZO      -0.767000
     14 N14          1.3250    -0.0110     2.3480 nb         1 7ZO      -0.791000
     15 N15          5.8410     0.6440     6.2540 ns         1 7ZO      -0.461100
     16 N16          3.4300    -0.0070     1.2840 nu         1 7ZO      -0.756300
     17 O17          5.1620     1.8720     8.0540 o          1 7ZO      -0.607500
     18 Cl1          2.2720     0.0000    -1.4900 cl         1 7ZO      -0.095400
     19 H1          -0.5480     0.0030    -0.9340 h4         1 7ZO       0.043100
     20 H2          -0.5530    -0.0100     3.2270 h5         1 7ZO       0.066100
     21 H3           6.8700    -0.9320     4.1170 ha         1 7ZO       0.136000
     22 H4           5.7200    -1.1500     1.9570 ha         1 7ZO       0.137000
     23 H5           2.5930     1.4190     3.3560 ha         1 7ZO       0.160000
     24 H6           2.9250     1.4310     6.4220 hc         1 7ZO       0.092200
     25 H7           3.8130     2.8470     5.7980 hc         1 7ZO       0.092200
     26 H8           6.6900     0.2770     6.6350 hn         1 7ZO       0.337500
     27 H9           3.9630    -0.0820     0.4410 hn         1 7ZO       0.469800
@<TRIPOS>BOND
     1    17    11 2
     2    11    12 1
     3    11    15 1
     4    12     3 1
     5    15     4 1
     6     3     4 ar
     7     3     9 ar
     8     4     7 ar
     9     9     5 ar
    10     7     8 ar
    11     5     8 ar
    12     5    16 1
    13    16     6 1
    14     6    14 ar
    15     6    10 ar
    16    18    10 1
    17    14     2 ar
    18    10     1 ar
    19     2    13 ar
    20     1    13 ar
    21     1    19 1
    22     2    20 1
    23     7    21 1
    24     8    22 1
    25     9    23 1
    26    12    24 1
    27    12    25 1
    28    15    26 1
    29    16    27 1
@<TRIPOS>SUBSTRUCTURE
     1 7ZO         1 TEMP              0 ****  ****    0 ROOT
