@<TRIPOS>MOLECULE
7ZP
   52    56     1     0     0
SMALL
bcc


@<TRIPOS>ATOM
      1 N3           0.0000     0.0000     0.0000 na         1 7ZP       0.602300
      2 C4           3.1610     0.0000     1.8100 cc         1 7ZP      -0.128300
      3 C7           0.6020    -0.0010     2.1190 cc         1 7ZP       0.415200
      4 C8           4.1810    -0.7120     1.2660 cd         1 7ZP      -0.143200
      5 C10         -6.4720    -0.9950    -1.6720 c          1 7ZP       0.574100
      6 C17         -9.3130    -1.2500    -0.1220 ca         1 7ZP       0.144900
      7 C22          5.9240     0.9260     3.9720 ca         1 7ZP      -0.224300
      8 C24         -4.1420    -1.4250    -2.2370 c3         1 7ZP       0.128300
      9 C28         -0.4320     0.7010    -2.2720 ca         1 7ZP      -0.095000
     10 C1           1.7660     0.0000     1.3230 cc         1 7ZP      -0.286100
     11 C2           1.3590     0.0000     0.0000 cd         1 7ZP      -0.016200
     12 N5          -0.4380    -0.0000     1.3290 nd         1 7ZP      -0.649800
     13 N6           3.6250     0.7180     2.8890 na         1 7ZP       0.370600
     14 C9          -8.7850    -0.6200    -1.2410 ca         1 7ZP      -0.125400
     15 C11         -0.8220     0.0060    -1.1350 ca         1 7ZP      -0.160200
     16 C12          5.3740    -0.4190     2.0550 ca         1 7ZP      -0.225100
     17 N13         -7.4540    -0.1800    -1.2370 ns         1 7ZP      -0.081100
     18 C14          4.9670     0.4820     3.0640 ca         1 7ZP      -0.208200
     19 N15         -5.2080    -0.5380    -1.7640 ns         1 7ZP      -0.213900
     20 C16         -9.5780    -0.4270    -2.3660 ca         1 7ZP       0.144900
     21 C18         -2.0260    -0.6840    -1.1260 ca         1 7ZP      -0.063000
     22 O19         -6.7290    -2.1430    -1.9820 o          1 7ZP      -0.691100
     23 O20          2.1640     0.0010    -1.0900 oh         1 7ZP      -0.453100
     24 N21          7.5700    -0.3670     2.8900 nb         1 7ZP      -0.612000
     25 C23         -2.8340    -0.6760    -2.2460 ca         1 7ZP      -0.117300
     26 C25          6.7070    -0.8260     2.0080 ca         1 7ZP       0.463200
     27 F26         -9.0690     0.1850    -3.4560 f          1 7ZP      -0.119900
     28 C29          7.2180     0.4710     3.8520 ca         1 7ZP       0.411200
     29 C30         -1.2460     0.7090    -3.3880 ca         1 7ZP      -0.091000
     30 C31        -11.4140    -1.4910    -1.2510 ca         1 7ZP      -0.039000
     31 C32        -10.6280    -1.6840    -0.1300 ca         1 7ZP      -0.143500
     32 C33        -10.8910    -0.8630    -2.3660 ca         1 7ZP      -0.143500
     33 C34         -2.4420     0.0160    -3.3780 ca         1 7ZP      -0.074000
     34 H1           0.5750    -0.0020     3.2020 h4         1 7ZP       0.005100
     35 H2           4.0850    -1.4960     0.5250 ha         1 7ZP       0.126000
     36 H3           5.6530     1.6120     4.7660 ha         1 7ZP       0.108000
     37 H4          -4.3710    -1.7630    -3.2410 h1         1 7ZP       0.031700
     38 H5          -4.0640    -2.2800    -1.5770 h1         1 7ZP       0.031700
     39 H6           0.5050     1.2440    -2.2810 ha         1 7ZP       0.131000
     40 H8           3.0680     1.3220     3.4600 hn         1 7ZP       0.115700
     41 H9          -7.2320     0.7390    -0.9090 hn         1 7ZP       0.168500
     42 H10         -4.9940     0.4000    -1.4890 hn         1 7ZP       0.171500
     43 H11         -2.3070    -1.2710    -0.2600 ha         1 7ZP       0.132000
     44 H12          7.0360    -1.5110     1.2350 h4         1 7ZP      -0.023900
     45 H13          7.9680     0.8180     4.5520 h4         1 7ZP      -0.023900
     46 H14         -0.9420     1.2510    -4.2760 ha         1 7ZP       0.112000
     47 H15        -12.4430    -1.8310    -1.2550 ha         1 7ZP       0.110000
     48 H16        -11.0400    -2.1760     0.7430 ha         1 7ZP       0.124000
     49 H17        -11.5100    -0.7130    -3.2430 ha         1 7ZP       0.124000
     50 H18         -3.0780     0.0240    -4.2550 ha         1 7ZP       0.114000
     51 H7           2.3200    -0.8870    -1.3660 ho         1 7ZP       0.411000
     52 F27         -8.5480    -1.4350     0.9760 f          1 7ZP      -0.119900
@<TRIPOS>BOND
     1     1    11 1   
     2     1    12 1   
     3     1    15 1   
     4     2     4 2   
     5     2    10 1   
     6     2    13 1   
     7     3    10 1   
     8     3    12 2   
     9     3    34 1   
    10     4    16 1   
    11     4    35 1   
    12     5    17 1   
    13     5    19 1   
    14     5    22 2   
    15     6    14 ar  
    16     6    31 ar  
    17     6    52 1   
    18     7    18 ar  
    19     7    28 ar  
    20     7    36 1   
    21     8    19 1   
    22     8    25 1   
    23     8    37 1   
    24     8    38 1   
    25     9    15 ar  
    26     9    29 ar  
    27     9    39 1   
    28    10    11 2   
    29    11    23 1   
    30    13    18 1   
    31    13    40 1   
    32    14    17 1   
    33    14    20 ar  
    34    15    21 ar  
    35    16    18 ar  
    36    16    26 ar  
    37    17    41 1   
    38    19    42 1   
    39    20    27 1   
    40    20    32 ar  
    41    21    25 ar  
    42    21    43 1   
    43    23    51 1   
    44    24    26 ar  
    45    24    28 ar  
    46    25    33 ar  
    47    26    44 1   
    48    28    45 1   
    49    29    33 ar  
    50    29    46 1   
    51    30    31 ar  
    52    30    32 ar  
    53    30    47 1   
    54    31    48 1   
    55    32    49 1   
    56    33    50 1   
@<TRIPOS>SUBSTRUCTURE
     1 7ZP         1 TEMP              0 ****  ****    0 ROOT
