@<TRIPOS>MOLECULE
7ZR
   43    45     1     0     0
SMALL
bcc


@<TRIPOS>ATOM
      1 C10          0.0000     0.0000     0.0000 ca         1 7ZR      -0.210000
      2 C15         -1.9350     2.3930     3.5550 cc         1 7ZR       0.635300
      3 C20         -3.3660     5.6910     3.0670 ca         1 7ZR      -0.144500
      4 C21         -2.8910     6.4310     4.1490 ca         1 7ZR       0.017000
      5 C22         -3.2460     7.7580     4.2830 ca         1 7ZR      -0.452200
      6 C24         -4.5460     7.6240     2.2720 ca         1 7ZR      -0.120000
      7 N26         -2.7430     8.5440     5.4320 no         1 7ZR       1.048200
      8 O28         -3.0560     9.7150     5.5520 o          1 7ZR      -0.449500
      9 C01          1.2900     0.0010    -2.3760 c3         1 7ZR       0.242700
     10 O02          2.0680     0.0010    -1.1770 os         1 7ZR      -0.287900
     11 C03          1.3850     0.0000     0.0000 ca         1 7ZR       0.178100
     12 C04          2.0780     0.0000     1.2070 ca         1 7ZR       0.091100
     13 O05          3.4390     0.0010     1.2120 os         1 7ZR      -0.292900
     14 C06          4.0820    -0.0000     2.4880 c3         1 7ZR       0.241700
     15 C07          1.3800    -0.0010     2.4030 ca         1 7ZR      -0.071000
     16 C08         -0.0030    -0.0000     2.3960 ca         1 7ZR      -0.176500
     17 C09         -0.6910    -0.0000     1.1970 ca         1 7ZR       0.004000
     18 S11         -0.8890    -0.0010     3.9180 sy         1 7ZR       1.032200
     19 O12         -2.1720    -0.5450     3.6370 o          1 7ZR      -0.568800
     20 O13         -0.0120    -0.5450     4.8940 o          1 7ZR      -0.568800
     21 N14         -1.1360     1.5810     4.3430 nu         1 7ZR      -0.449800
     22 N16         -2.1970     3.6410     3.7890 nd         1 7ZR      -0.623000
     23 C17         -2.9880     4.2660     2.9170 cd         1 7ZR       0.419800
     24 C18         -3.4200     3.5100     1.8920 cc         1 7ZR      -0.143400
     25 S19         -2.7460     1.8920     2.0750 ss         1 7ZR      -0.303300
     26 C23         -4.0720     8.3530     3.3480 ca         1 7ZR      -0.009000
     27 C25         -4.2020     6.2950     2.1300 ca         1 7ZR      -0.039000
     28 O27         -2.0160     8.0200     6.2570 o          1 7ZR      -0.449500
     29 H1          -0.5420    -0.0000    -0.9380 ha         1 7ZR       0.130000
     30 H2          -2.1970     5.9820     4.8490 ha         1 7ZR       0.151000
     31 H3          -5.1940     8.0950     1.5430 ha         1 7ZR       0.115000
     32 H4           0.6650     0.8850    -2.4010 h1         1 7ZR       0.000367
     33 H5           0.6650    -0.8840    -2.4020 h1         1 7ZR       0.000367
     34 H6           1.9510     0.0020    -3.2350 h1         1 7ZR       0.000367
     35 H7           3.7910    -0.8870     3.0380 h1         1 7ZR       0.000367
     36 H8           3.7870     0.8820     3.0420 h1         1 7ZR       0.000367
     37 H9           5.1570     0.0020     2.3500 h1         1 7ZR       0.000367
     38 H10          1.9160    -0.0010     3.3440 ha         1 7ZR       0.141000
     39 H11         -1.7740    -0.0000     1.1960 ha         1 7ZR       0.145000
     40 H12         -0.7330     1.9420     5.1850 hn         1 7ZR       0.359800
     41 H13         -4.0660     3.8410     1.0880 h4         1 7ZR       0.165000
     42 H14         -4.3470     9.3960     3.4560 ha         1 7ZR       0.132000
     43 H15         -4.5740     5.7250     1.2870 ha         1 7ZR       0.111000
@<TRIPOS>BOND
     1     1    11 ar  
     2     1    17 ar  
     3     1    29 1   
     4     2    21 1   
     5     2    22 2   
     6     2    25 1   
     7     3     4 ar  
     8     3    23 1   
     9     3    27 ar  
    10     4     5 ar  
    11     4    30 1   
    12     5     7 1   
    13     5    26 ar  
    14     6    26 ar  
    15     6    27 ar  
    16     6    31 1   
    17     7     8 1   
    18     7    28 1   
    19     9    10 1   
    20     9    32 1   
    21     9    33 1   
    22     9    34 1   
    23    10    11 1   
    24    11    12 ar  
    25    12    13 1   
    26    12    15 ar  
    27    13    14 1   
    28    14    35 1   
    29    14    36 1   
    30    14    37 1   
    31    15    16 ar  
    32    15    38 1   
    33    16    17 ar  
    34    16    18 1   
    35    17    39 1   
    36    18    19 2   
    37    18    20 2   
    38    18    21 1   
    39    21    40 1   
    40    22    23 1   
    41    23    24 2   
    42    24    25 1   
    43    24    41 1   
    44    26    42 1   
    45    27    43 1   
@<TRIPOS>SUBSTRUCTURE
     1 7ZR         1 TEMP              0 ****  ****    0 ROOT
