@<TRIPOS>MOLECULE
molecule
   17    17     1     0     0
SMALL
bcc


@<TRIPOS>ATOM
      1 C            0.0000     0.0000     0.0000 c          1 7ZS       0.881200
      2 O            1.2160     0.0000     0.0000 o          1 7ZS      -0.827800
      3 C1          -0.7370     0.0000     1.2760 ca         1 7ZS      -0.145600
      4 C2          -2.1340     0.0000     1.2790 ca         1 7ZS      -0.053000
      5 C3          -2.8290    -0.0010     2.4730 ca         1 7ZS      -0.190000
      6 C4          -2.1540    -0.0010     3.6770 ca         1 7ZS      -0.101000
      7 C5          -0.7550     0.0000     3.7000 ca         1 7ZS      -0.268600
      8 C6          -0.0390    -0.0050     2.4910 ca         1 7ZS       0.198100
      9 C7          -0.0380    -0.0010     4.9810 c          1 7ZS       0.582500
     10 O1          -0.6730     0.0060    -1.1670 o          1 7ZS      -0.827800
     11 O2           1.3150    -0.0100     2.5010 oh         1 7ZS      -0.479100
     12 H1          -2.6750     0.0010     0.3410 ha         1 7ZS       0.159000
     13 H2          -3.9120    -0.0010     2.4640 ha         1 7ZS       0.109000
     14 H3          -2.7090    -0.0010     4.6070 ha         1 7ZS       0.105000
     15 H4          -0.5930    -0.0020     5.9120 h4         1 7ZS      -0.030800
     16 H8           1.6260    -0.9000     2.5080 ho         1 7ZS       0.425000
     17 O3           1.1740    -0.0010     4.9990 o          1 7ZS      -0.537100
@<TRIPOS>BOND
     1     2     1 1
     2     4     5 ar
     3     4     3 ar
     4     5     6 ar
     5     1     3 1
     6     1    10 1
     7     3     8 ar
     8     6     7 ar
     9     8     7 ar
    10     8    11 1
    11     7     9 1
    12     4    12 1
    13     5    13 1
    14     6    14 1
    15     9    15 1
    16    11    16 1
    17     9    17 2
@<TRIPOS>SUBSTRUCTURE
     1 7ZS         1 TEMP              0 ****  ****    0 ROOT
