@<TRIPOS>MOLECULE
7ZY
   52    56     1     0     0
SMALL
bcc


@<TRIPOS>ATOM
      1 C4           0.0000     0.0000     0.0000 ca         1 7ZY      -0.225300
      2 C5           2.0560     0.0010    -1.2460 ca         1 7ZY      -0.225100
      3 C6           1.3910     0.0000     0.0000 ca         1 7ZY      -0.207200
      4 C8           3.6050     0.0010     0.4080 cc         1 7ZY      -0.128300
      5 C10          4.8820    -0.0010     1.1510 cc         1 7ZY      -0.285100
      6 N12          6.9580    -0.4280     1.7640 na         1 7ZY       0.601300
      7 C15          8.2600    -0.9440     1.8110 ca         1 7ZY      -0.159200
      8 C17          9.7900    -2.7560     1.4580 ca         1 7ZY      -0.090000
      9 C20          9.3070    -0.1510     2.2640 ca         1 7ZY      -0.064000
     10 C24         13.3550     1.7540     1.8750 c          1 7ZY       0.567100
     11 C28         15.8440     3.1470     2.0670 ca         1 7ZY      -0.120000
     12 C1           1.3010     0.0010    -2.4180 ca         1 7ZY       0.463200
     13 N2          -0.0150     0.0070    -2.3560 nb         1 7ZY      -0.612000
     14 C3          -0.6680     0.0010    -1.2060 ca         1 7ZY       0.412200
     15 N7           2.3530     0.0000     0.9800 na         1 7ZY       0.370600
     16 C9           3.4860    -0.0040    -0.9450 cd         1 7ZY      -0.144200
     17 C11          6.0190    -0.7190     0.8270 cd         1 7ZY      -0.017200
     18 N13          6.3980     0.4710     2.6800 nd         1 7ZY      -0.647800
     19 C14          5.1700     0.7340     2.3200 cc         1 7ZY       0.416200
     20 C16          8.5060    -2.2500     1.4110 ca         1 7ZY      -0.094000
     21 C18         10.8310    -1.9620     1.9050 ca         1 7ZY      -0.076000
     22 C19         10.5890    -0.6630     2.3100 ca         1 7ZY      -0.117300
     23 N22         12.3160     0.9190     1.6730 ns         1 7ZY      -0.222900
     24 O23          6.1700    -1.5550    -0.2300 oh         1 7ZY      -0.452100
     25 N25         13.8980     2.4180     0.8360 ns         1 7ZY      -0.052100
     26 O26         13.8010     1.9080     2.9950 o          1 7ZY      -0.692100
     27 C27         14.9110     3.3570     1.0590 ca         1 7ZY      -0.078400
     28 C29         16.8430     4.0770     2.2840 ca         1 7ZY      -0.084500
     29 C30         16.9180     5.2100     1.4960 ca         1 7ZY      -0.116000
     30 C31         15.9950     5.4180     0.4890 ca         1 7ZY      -0.084500
     31 C32         14.9870     4.5000     0.2730 ca         1 7ZY      -0.120000
     32 H1          -0.5500    -0.0050     0.9330 ha         1 7ZY       0.108000
     33 H3           9.9830    -3.7740     1.1440 ha         1 7ZY       0.112000
     34 H4           9.1100     0.8490     2.6310 ha         1 7ZY       0.133000
     35 H5          11.3500     0.9070     3.5290 h1         1 7ZY       0.032700
     36 H6          12.4780    -0.4300     3.2640 h1         1 7ZY       0.032700
     37 H8           1.7970     0.0060    -3.3810 h4         1 7ZY      -0.023900
     38 H9          -1.7510     0.0060    -1.2120 h4         1 7ZY      -0.022900
     39 H10          2.1710    -0.0010     1.9640 hn         1 7ZY       0.116700
     40 H11          4.2870     0.1650    -1.6550 ha         1 7ZY       0.126000
     41 H12          4.4870     1.3970     2.8370 h4         1 7ZY       0.006100
     42 H13          7.6910    -2.8730     1.0610 ha         1 7ZY       0.131000
     43 H14         11.8370    -2.3610     1.9410 ha         1 7ZY       0.112000
     44 H15         11.9460     0.7940     0.7510 hn         1 7ZY       0.168500
     45 H16         13.5990     2.2180    -0.0980 hn         1 7ZY       0.159500
     46 H17         17.5690     3.9160     3.0710 ha         1 7ZY       0.102000
     47 H18         17.7050     5.9350     1.6660 ha         1 7ZY       0.102000
     48 H19         16.0560     6.3090    -0.1250 ha         1 7ZY       0.102000
     49 H20         14.2620     4.6650    -0.5150 ha         1 7ZY       0.125000
     50 H2           6.5280    -1.0780    -0.9600 ho         1 7ZY       0.409000
     51 C21         11.7240     0.1970     2.8020 c3         1 7ZY       0.127300
     52 H7          15.7860     2.2590     2.6840 ha         1 7ZY       0.125000
@<TRIPOS>BOND
     1     1     3 ar  
     2     1    14 ar  
     3     1    32 1   
     4     2     3 ar  
     5     2    12 ar  
     6     2    16 1   
     7     3    15 1   
     8     4     5 1   
     9     4    15 1   
    10     4    16 2   
    11     5    17 2   
    12     5    19 1   
    13     6     7 1   
    14     6    17 1   
    15     6    18 1   
    16     7     9 ar  
    17     7    20 ar  
    18     8    20 ar  
    19     8    21 ar  
    20     8    33 1   
    21     9    22 ar  
    22     9    34 1   
    23    10    23 1   
    24    10    25 1   
    25    10    26 2   
    26    11    27 ar  
    27    11    28 ar  
    28    11    52 1   
    29    12    13 ar  
    30    12    37 1   
    31    13    14 ar  
    32    14    38 1   
    33    15    39 1   
    34    16    40 1   
    35    17    24 1   
    36    18    19 2   
    37    19    41 1   
    38    20    42 1   
    39    21    22 ar  
    40    21    43 1   
    41    22    51 1   
    42    23    44 1   
    43    23    51 1   
    44    24    50 1   
    45    25    27 1   
    46    25    45 1   
    47    27    31 ar  
    48    28    29 ar  
    49    28    46 1   
    50    29    30 ar  
    51    29    47 1   
    52    30    31 ar  
    53    30    48 1   
    54    31    49 1   
    55    35    51 1   
    56    36    51 1   
@<TRIPOS>SUBSTRUCTURE
     1 7ZY         1 TEMP              0 ****  ****    0 ROOT
