@<TRIPOS>MOLECULE
molecule
   22    22     1     0     0
SMALL
bcc


@<TRIPOS>ATOM
      1 C1           0.0000     0.0000     0.0000 ca         1 300      -0.101000
      2 C2           1.3760     0.0000     0.0000 ca         1 300      -0.185000
      3 C3           2.0760     0.0000     1.1950 ca         1 300      -0.214000
      4 C4           1.4000    -0.0020     2.4030 ca         1 300       0.090100
      5 C5           0.0100    -0.0100     2.4230 ca         1 300       0.237100
      6 C6          -0.7000    -0.0020     1.2120 ca         1 300      -0.196600
      7 C10         -2.1670    -0.0030     1.2180 c          1 300       0.651500
      8 O11         -0.6550    -0.0110     3.6040 os         1 300      -0.412500
      9 O12          2.0970    -0.0030     3.5710 os         1 300      -0.230900
     10 C13          3.4830    -0.0020     3.2260 c3         1 300       0.114700
     11 P17         -0.8900    -1.5510     4.0040 p5         1 300       1.096900
     12 O18         -1.6800    -1.6290     5.4050 o          1 300      -0.871500
     13 O19          0.4180    -2.2300     4.1370 o          1 300      -0.871500
     14 O20         -1.7570    -2.2780     2.8590 o          1 300      -0.871500
     15 O21         -2.7790    -0.0030     0.1690 o          1 300      -0.638100
     16 H1          -0.5420     0.0030    -0.9380 ha         1 300       0.118000
     17 H2           1.9140     0.0020    -0.9400 ha         1 300       0.087000
     18 H3           3.1590     0.0030     1.1840 ha         1 300       0.106000
     19 H10         -2.7050     0.0320     2.1570 h4         1 300       0.038200
     20 H131         3.7100    -0.8830     2.6390 h1         1 300       0.018033
     21 H132         4.0800    -0.0070     4.1310 h1         1 300       0.018033
     22 H133         3.7110     0.8860     2.6490 h1         1 300       0.018033
@<TRIPOS>BOND
     1     1     2 ar
     2     1     6 ar
     3     1    16 1
     4     2     3 ar
     5     2    17 1
     6     3     4 ar
     7     3    18 1
     8     4     5 ar
     9     4     9 1
    10     5     6 ar
    11     5     8 1
    12     6     7 1
    13     7    15 2
    14     7    19 1
    15     8    11 1
    16     9    10 1
    17    10    20 1
    18    10    21 1
    19    10    22 1
    20    11    12 1
    21    11    13 1
    22    11    14 1
@<TRIPOS>SUBSTRUCTURE
     1 300         1 TEMP              0 ****  ****    0 ROOT
