@<TRIPOS>MOLECULE
300
   22    21     1     0     0
SMALL
bcc


@<TRIPOS>ATOM
      1 C1          0.0650    0.4330   -0.4060 ca        1 300     -0.012000
      2 C2          1.3470    0.9370   -0.4780 ca        1 300     -0.318000
      3 C3          2.1540    0.9270    0.6800 ca        1 300     -0.097000
      4 C4          1.6640    0.4450    1.8710 ca        1 300     -0.096000
      5 C5          0.3110   -0.0980    1.9970 ca        1 300      0.334000
      6 C6         -0.4670   -0.0880    0.7810 ca        1 300     -0.389000
      7 C10        -1.8080   -0.6300    0.8100 c2        1 300      0.243000
      8 O11        -0.1350   -0.5340    3.0980 o         1 300     -0.525000
      9 O12         2.4850    0.5940    2.9860 os        1 300     -0.253000
     10 C13         2.7370   -0.6160    3.7000 c3        1 300     -0.086000
     11 P17        -0.6980   -1.8630    4.9200 p3        1 300      2.483000
     12 O18        -0.9300   -0.8120    5.9340 o         1 300     -1.162333
     13 O19         0.5960   -2.5860    4.9430 o         1 300     -1.162333
     14 O20        -1.8590   -2.4870    4.2520 o         1 300     -1.162333
     15 O21        -2.5890   -0.6200   -0.1660 o         1 300     -0.447000
     16 H1         -0.5800    0.4290   -1.3010 ha        1 300      0.099000
     17 H2          1.7490    1.3410   -1.4130 ha        1 300      0.082000
     18 H3          3.1770    1.3290    0.6320 ha        1 300      0.089000
     19 H10        -2.1240   -1.0810    1.7820 h4        1 300      0.135000
     20 H131        3.3210   -0.2790    4.5930 h1        1 300      0.082333
     21 H132        1.7850   -1.1260    4.0190 h1        1 300      0.082333
     22 H133        3.3580   -1.3010    3.0710 h1        1 300      0.082333
@<TRIPOS>BOND
     1    1    2 1   
     2    1    6 1   
     3    1   16 1   
     4    2    3 1   
     5    2   17 1   
     6    3    4 1   
     7    3   18 1   
     8    4    5 1   
     9    4    9 1   
    10    5    6 1   
    11    5    8 1   
    12    6    7 1   
    13    7   15 1   
    14    7   19 1   
    15    9   10 1   
    16   10   20 1   
    17   10   21 1   
    18   10   22 1   
    19   11   12 1   
    20   11   13 1   
    21   11   14 1   
@<TRIPOS>SUBSTRUCTURE
     1 300         1 TEMP              0 ****  ****    0 ROOT
