@<TRIPOS>MOLECULE
molecule
   26    27     1     0     0
SMALL
bcc


@<TRIPOS>ATOM
      1 C15          0.0000     0.0000     0.0000 c3         1 301       0.061100
      2 C14          1.5070     0.0000     0.0000 c2         1 301      -0.244200
      3 C13          2.1630     0.0000     1.1340 c2         1 301      -0.231200
      4 C12          1.4100    -0.0010     2.4390 c3         1 301       0.048500
      5 C11          1.8650    -1.1650     3.2820 c2         1 301       0.469200
      6 N1           2.6740    -3.2630     4.7710 nb         1 301      -0.802000
      7 C2           3.0710    -4.2870     5.5010 ca         1 301       0.709900
      8 N3           3.5260    -4.1470     6.7300 nb         1 301      -0.752000
      9 C4           3.6050    -2.9470     7.2900 ca         1 301       0.438800
     10 C5           3.1950    -1.8190     6.5550 ca         1 301      -0.115200
     11 C6           2.7150    -2.0200     5.2450 ca         1 301       0.712300
     12 N10          2.3020    -0.9620     4.4820 ne         1 301      -0.667700
     13 N7           3.3760    -0.7380     7.3470 nc         1 301      -0.559100
     14 C8           3.8590    -1.1180     8.4960 cd         1 301       0.425700
     15 N9           4.0180    -2.4710     8.5100 na         1 301      -0.363000
     16 H15         -0.3610    -0.8230     0.6050 hc         1 301       0.038700
     17 H15A        -0.3610    -0.1120    -1.0150 hc         1 301       0.038700
     18 H15B        -0.3610     0.9350     0.4100 hc         1 301       0.038700
     19 H14          0.8950    -0.8750     0.1860 ha         1 301       0.085000
     20 H13          1.6980     0.8750     1.5720 ha         1 301       0.062000
     21 H12          1.6030     0.9250     2.9680 hc         1 301       0.066200
     22 H12A         0.3480    -0.0910     2.2440 hc         1 301       0.066200
     23 H11          1.8260    -2.1710     2.8820 h4         1 301       0.012800
     24 H8           4.0990    -0.4560     9.3190 h5         1 301       0.082800
     25 HN9          4.3710    -3.0180     9.2700 hn         1 301       0.315700
     26 H2           3.0200    -5.2810     5.0740 h5         1 301       0.063100
@<TRIPOS>BOND
     1     1     2 1
     2     2     3 2
     3     3     4 1
     4     4     5 1
     5     5    12 2
     6     6     7 ar
     7     6    11 ar
     8     7     8 ar
     9     8     9 ar
    10     9    10 ar
    11     9    15 1
    12    10    11 ar
    13    10    13 1
    14    11    12 1
    15    13    14 2
    16    14    15 1
    17     1    16 1
    18     1    17 1
    19     1    18 1
    20     2    19 1
    21     3    20 1
    22     4    21 1
    23     4    22 1
    24     5    23 1
    25     7    26 1
    26    14    24 1
    27    15    25 1
@<TRIPOS>SUBSTRUCTURE
     1 301         1 TEMP              0 ****  ****    0 ROOT
