@<TRIPOS>MOLECULE
301
   26    27     1     0     0
SMALL
bcc


@<TRIPOS>ATOM
      1 C15          0.0000     0.0000     0.0000 c3         1 301       0.044100
      2 C14          1.5070     0.0000     0.0000 c2         1 301      -0.154200
      3 C13          2.1630     0.0000     1.1340 c2         1 301      -0.159200
      4 C12          1.4100    -0.0010     2.4390 c3         1 301      -0.058500
      5 C11          1.8650    -1.1650     3.2820 c2         1 301       0.471200
      6 N1           2.6740    -3.2630     4.7710 nb         1 301      -0.694000
      7 C2           3.0710    -4.2870     5.5010 ca         1 301       0.647900
      8 N3           3.5260    -4.1470     6.7300 nb         1 301      -0.619000
      9 C4           3.6050    -2.9470     7.2900 ca         1 301       0.205800
     10 C5           3.1950    -1.8190     6.5550 ca         1 301      -0.149200
     11 C6           2.7150    -2.0200     5.2450 ca         1 301       0.636300
     12 N10          2.3020    -0.9620     4.4820 ne         1 301      -0.578700
     13 N7           3.3760    -0.7380     7.3470 nc         1 301      -0.462100
     14 C8           3.8590    -1.1180     8.4960 cd         1 301       0.231700
     15 N9           4.0180    -2.4710     8.5100 na         1 301       0.173000
     16 H15         -0.3610    -0.9160     0.4510 hc         1 301       0.008367
     17 H15A        -0.3610     0.0670    -1.0190 hc         1 301       0.008367
     18 H15B        -0.3610     0.8490     0.5680 hc         1 301       0.008367
     19 H14          2.0480     0.0010    -0.9380 ha         1 301       0.102000
     20 H13          3.2460     0.0000     1.1330 ha         1 301       0.107000
     21 H12          0.3480    -0.0910     2.2440 hc         1 301       0.042200
     22 H12A         1.6030     0.9250     2.9680 hc         1 301       0.042200
     23 H11          1.7960    -2.1740     2.8940 h4         1 301      -0.019200
     24 H8           4.0990    -0.4560     9.3190 h5         1 301       0.032800
     25 HN9          4.3710    -3.0180     9.2700 hn         1 301       0.134700
     26 H2           3.0200    -5.2810     5.0740 h5         1 301      -0.000900
@<TRIPOS>BOND
     1     1     2 1   
     2     1    16 1   
     3     1    17 1   
     4     1    18 1   
     5     2     3 2   
     6     2    19 1   
     7     3     4 1   
     8     3    20 1   
     9     4     5 1   
    10     4    21 1   
    11     4    22 1   
    12     5    12 2   
    13     5    23 1   
    14     6     7 ar  
    15     6    11 ar  
    16     7     8 ar  
    17     7    26 1   
    18     8     9 ar  
    19     9    10 ar  
    20     9    15 1   
    21    10    11 ar  
    22    10    13 1   
    23    11    12 1   
    24    13    14 2   
    25    14    15 1   
    26    14    24 1   
    27    15    25 1   
@<TRIPOS>SUBSTRUCTURE
     1 301         1 TEMP              0 ****  ****    0 ROOT
