@<TRIPOS>MOLECULE
302
   38    36     1     0     0
SMALL
bcc


@<TRIPOS>ATOM
      1 C1         -0.6140    0.4750   -1.1590 c1        1 302     -0.103000
      2 C3         -0.8800   -1.6040    2.8710 c1        1 302      0.324000
      3 C5          1.4210    1.2890    0.0510 c2        1 302      0.244000
      4 C6          0.5750    1.0260   -1.2440 c2        1 302      0.054000
      5 N2         -0.9420   -1.0380    1.7810 n2        1 302     -0.412000
      6 N4          1.9090    2.4810    0.2470 n2        1 302     -0.409000
      7 O37        -3.9170    4.6950  -12.3130 o         1 302     -0.527000
      8 O36        -5.1010    2.8150  -12.6460 o         1 302     -0.527000
      9 C28        -4.0150    3.0860  -10.5550 c2        1 302      0.014000
     10 C27        -3.5170    3.9360   -9.5730 c2        1 302     -0.191000
     11 C26        -3.2300    3.4720   -8.3020 c2        1 302      0.002000
     12 C29        -4.2330    1.6750  -10.2550 c3        1 302     -0.156000
     13 C30        -3.9090    1.2260   -8.9110 c2        1 302     -0.239000
     14 C24        -3.4230    2.0970   -7.9230 c2        1 302      0.117000
     15 C20        -3.1440    1.6960   -6.6630 c1        1 302     -0.536000
     16 N19        -3.0050    1.3480   -5.4690 n2        1 302      0.067000
     17 O16        -1.8400    0.8670   -5.0270 oh        1 302     -0.345000
     18 C13        -5.1280   -0.0640   -3.1440 c2        1 302     -0.178000
     19 C12        -3.8830   -0.3540   -2.7680 c2        1 302     -0.092000
     20 O11        -3.7300   -1.0860   -1.5580 os        1 302     -0.142000
     21 N10        -2.8630   -0.5900   -0.6630 n3        1 302      0.026000
     22 C9         -1.7150   -0.0910   -0.9610 c1        1 302      0.029000
     23 O7          1.5240    0.2480    0.7740 o         1 302     -0.517000
     24 O8         -1.0740   -2.2200    3.8890 o         1 302     -0.243000
     25 H6          1.0230    1.3070   -2.2120 ha        1 302      0.172000
     26 HN2        -0.1930   -0.5420    1.3340 hn        1 302      0.312000
     27 HN4         1.7180    3.1390   -0.4750 hn        1 302      0.113000
     28 H27        -2.8400    4.1650   -7.5380 ha        1 302      0.134000
     29 H26        -3.3530    4.9950   -9.8410 ha        1 302      0.168000
     30 H29        -3.6700    1.0630  -11.0290 hc        1 302      0.192000
     31 H30        -5.3260    1.4620  -10.5030 hc        1 302      0.192000
     32 H20        -4.0560    0.1650   -8.6780 ha        1 302      0.129000
     33 H131       -1.1560    0.8100   -5.7180 ho        1 302      0.170000
     34 H132       -5.3070    0.3950   -4.1300 ha        1 302      0.146500
     35 H121       -6.0110   -0.2840   -2.5330 ha        1 302      0.146500
     36 H122       -2.9490   -0.1570   -3.3190 h4        1 302      0.211000
     37 H9         -3.0780   -0.9220    0.2720 hn        1 302      0.314000
     38 C35        -4.3720    3.5790  -11.9580 c2        1 302      0.341000
@<TRIPOS>BOND
     1    1    4 1
     2    1   22 1
     3    2    5 1
     4    2   24 1
     5    3    4 1
     6    3    6 1
     7    3   23 1
     8    4   25 1
     9    5   26 1
    10    6   27 1
    11    7   38 1
    12    8   38 1
    13    9   10 1
    14    9   12 1
    15    9   38 1
    16   10   11 1
    17   10   29 1
    18   11   14 1
    19   11   28 1
    20   12   13 1
    21   12   30 1
    22   12   31 1
    23   13   14 1
    24   13   32 1
    25   14   15 1
    26   15   16 1
    27   16   17 1
    28   17   33 1
    29   18   19 1
    30   18   34 1
    31   18   35 1
    32   19   20 1
    33   19   36 1
    34   20   21 1
    35   21   22 1
    36   21   37 1
@<TRIPOS>SUBSTRUCTURE
     1 302         1 TEMP              0 ****  ****    0 ROOT
