@<TRIPOS>MOLECULE
molecule
   56    59     1     0     0
SMALL
bcc


@<TRIPOS>ATOM
      1 N18          0.0000     0.0000     0.0000 n2         1 303      -0.728100
      2 C17          1.3020     0.0000     0.0000 ce         1 303       0.521800
      3 N19          1.9900     0.0000     1.1930 nz         1 303      -0.738600
      4 C4           2.0430     0.0020    -1.2820 ca         1 303      -0.171900
      5 C5           1.3450     0.0030    -2.4770 ca         1 303      -0.080000
      6 C6           2.0510     0.0040    -3.6900 ca         1 303      -0.050000
      7 C10          1.3700     0.0050    -4.9220 ca         1 303      -0.121000
      8 C11          2.0700     0.0060    -6.0850 ca         1 303      -0.084000
      9 C12          3.4760     0.0070    -6.0800 ca         1 303      -0.108600
     10 C13          4.1740     0.0020    -4.8830 ca         1 303      -0.054000
     11 C1           3.4680     0.0060    -3.6710 ca         1 303      -0.035000
     12 C2           4.1480     0.0050    -2.4390 ca         1 303      -0.073000
     13 C3           3.4460     0.0030    -1.2760 ca         1 303      -0.206000
     14 C20          4.2140     0.0090    -7.3590 c          1 303       0.662700
     15 O21          5.4290     0.0110    -7.3590 o          1 303      -0.572100
     16 N22          3.5400     0.0090    -8.5260 ns         1 303      -0.464100
     17 C23          4.2330     0.1290    -9.7340 ca         1 303       0.034600
     18 C28          3.8160    -0.5810   -10.8490 ca         1 303      -0.149000
     19 C27          4.5020    -0.4660   -12.0480 ca         1 303      -0.047300
     20 C26          5.6030     0.3610   -12.1280 ca         1 303      -0.066300
     21 C25          6.0220     1.0730   -11.0160 ca         1 303      -0.112000
     22 C24          5.3420     0.9610    -9.8210 ca         1 303      -0.119000
     23 C32          6.3700     0.5060   -13.4190 c3         1 303      -0.029100
     24 C33          5.5310    -0.0440   -14.5750 c3         1 303       0.143800
     25 N34          5.0850    -1.3990   -14.2290 n7         1 303      -0.790200
     26 C35          4.0190    -1.2510   -13.2370 c3         1 303       0.207800
     27 C40          3.5630    -2.6360   -12.7750 c3         1 303      -0.069700
     28 C42          3.0550    -3.4340   -13.9770 c3         1 303      -0.087100
     29 C46          4.7420    -3.3720   -12.1350 c3         1 303      -0.087100
     30 H18         -0.5020     0.0010    -0.8660 hn         1 303       0.481400
     31 H191         1.3380    -0.0020     1.9530 hn         1 303       0.473133
     32 H192         2.5660    -0.8160     1.2470 hn         1 303       0.473133
     33 H5           0.3370     0.0060    -2.8760 ha         1 303       0.175000
     34 H10          0.2870     0.0040    -4.9420 ha         1 303       0.146000
     35 H11          1.5390     0.0100    -7.0290 ha         1 303       0.146000
     36 H13          5.2570     0.0020    -4.8840 ha         1 303       0.178000
     37 H2           5.2300     0.0080    -2.4910 ha         1 303       0.161000
     38 H3           4.2910     0.0030    -0.5980 ha         1 303       0.158000
     39 H22          2.5450    -0.0960    -8.5280 hn         1 303       0.321500
     40 H28          2.9540    -1.2330   -10.7810 ha         1 303       0.133000
     41 H25          6.8870     1.7220   -11.0860 ha         1 303       0.140000
     42 H24          5.6520     1.5450    -8.9630 ha         1 303       0.148000
     43 H321         6.5820     1.5540   -13.5960 hc         1 303       0.061200
     44 H322         7.2970    -0.0490   -13.3510 hc         1 303       0.061200
     45 H331         4.6690     0.5930   -14.7320 h1         1 303       0.038200
     46 H332         6.1330    -0.0790   -15.4740 h1         1 303       0.038200
     47 H34          4.7200    -1.8490   -15.0460 hn         1 303       0.360800
     48 H35          3.1840    -0.7290   -13.6900 h1         1 303       0.031700
     49 H40          2.7660    -2.5300   -12.0480 hc         1 303       0.043700
     50 H421         2.4000    -2.8110   -14.5730 hc         1 303       0.038700
     51 H422         2.5090    -4.3020   -13.6290 hc         1 303       0.038700
     52 H423         3.8960    -3.7530   -14.5800 hc         1 303       0.038700
     53 H461         5.1860    -4.0430   -12.8610 hc         1 303       0.038700
     54 H462         4.3920    -3.9430   -11.2830 hc         1 303       0.038700
     55 H463         5.4830    -2.6530   -11.8080 hc         1 303       0.038700
     56 H193         2.5580     0.8220     1.2520 hn         1 303       0.473133
@<TRIPOS>BOND
     1     1     2 2   
     2     1    30 1   
     3     2     3 1   
     4     2     4 1   
     5     3    31 1   
     6     3    32 1   
     7     4     5 ar  
     8     4    13 ar  
     9     5     6 ar  
    10     5    33 1   
    11     6     7 ar  
    12     6    11 ar  
    13     7     8 ar  
    14     7    34 1   
    15     8     9 ar  
    16     8    35 1   
    17     9    10 ar  
    18     9    14 1   
    19    10    11 ar  
    20    10    36 1   
    21    11    12 ar  
    22    12    13 ar  
    23    12    37 1   
    24    13    38 1   
    25    14    15 2   
    26    14    16 1   
    27    16    17 1   
    28    16    39 1   
    29    17    18 ar  
    30    17    22 ar  
    31    18    19 ar  
    32    18    40 1   
    33    19    20 ar  
    34    19    26 1   
    35    20    21 ar  
    36    20    23 1   
    37    21    22 ar  
    38    21    41 1   
    39    22    42 1   
    40    23    24 1   
    41    23    43 1   
    42    23    44 1   
    43    24    25 1   
    44    24    45 1   
    45    24    46 1   
    46    25    26 1   
    47    25    47 1   
    48    26    27 1   
    49    26    48 1   
    50    27    28 1   
    51    27    29 1   
    52    27    49 1   
    53    28    50 1   
    54    28    51 1   
    55    28    52 1   
    56    29    53 1   
    57    29    54 1   
    58    29    55 1   
    59    56     3 1   
@<TRIPOS>SUBSTRUCTURE
     1 303         1 TEMP              0 ****  ****    0 ROOT
