@<TRIPOS>MOLECULE
303
   56    59     1     0     0
SMALL
bcc


@<TRIPOS>ATOM
      1 N18          0.0000     0.0000     0.0000 n2         1 303      -0.477100
      2 C17          1.3020     0.0000     0.0000 ce         1 303       0.239800
      3 N19          1.9900     0.0000     1.1930 nz         1 303       0.125400
      4 C4           2.0430     0.0020    -1.2820 ca         1 303      -0.188900
      5 C5           1.3450     0.0030    -2.4770 ca         1 303       0.032000
      6 C6           2.0510     0.0040    -3.6900 ca         1 303      -0.048000
      7 C10          1.3700     0.0050    -4.9220 ca         1 303      -0.075000
      8 C11          2.0700     0.0060    -6.0850 ca         1 303      -0.069000
      9 C12          3.4760     0.0070    -6.0800 ca         1 303      -0.116600
     10 C13          4.1740     0.0020    -4.8830 ca         1 303      -0.021000
     11 C1           3.4680     0.0060    -3.6710 ca         1 303      -0.028000
     12 C2           4.1480     0.0050    -2.4390 ca         1 303      -0.027000
     13 C3           3.4460     0.0030    -1.2760 ca         1 303      -0.169000
     14 C20          4.2140     0.0090    -7.3590 c          1 303       0.566700
     15 O21          5.4290     0.0110    -7.3590 o          1 303      -0.621100
     16 N22          3.5400     0.0090    -8.5260 ns         1 303      -0.017100
     17 C23          4.2330     0.1290    -9.7340 ca         1 303      -0.112400
     18 C28          3.8160    -0.5810   -10.8490 ca         1 303      -0.119000
     19 C27          4.5020    -0.4660   -12.0480 ca         1 303      -0.093300
     20 C26          5.6030     0.3610   -12.1280 ca         1 303      -0.081300
     21 C25          6.0220     1.0730   -11.0160 ca         1 303      -0.079000
     22 C24          5.3420     0.9610    -9.8210 ca         1 303      -0.089000
     23 C32          6.3700     0.5060   -13.4190 c3         1 303      -0.003100
     24 C33          5.5310    -0.0440   -14.5750 c3         1 303       0.138800
     25 N34          5.0850    -1.3990   -14.2290 n7         1 303      -0.575200
     26 C35          4.0190    -1.2510   -13.2370 c3         1 303       0.177800
     27 C40          3.5630    -2.6360   -12.7750 c3         1 303      -0.054700
     28 C42          3.0550    -3.4340   -13.9770 c3         1 303      -0.003600
     29 C46          4.7420    -3.3720   -12.1350 c3         1 303      -0.003600
     30 H18         -0.5020    -0.0010     0.8660 hn         1 303       0.336400
     31 H191         2.5640     0.8180     1.2480 hn         1 303       0.226133
     32 H192         2.5660    -0.8160     1.2470 hn         1 303       0.226133
     33 H5           0.2620     0.0070    -2.5270 ha         1 303       0.133000
     34 H10          0.2870     0.0040    -4.9420 ha         1 303       0.119000
     35 H11          1.5390     0.0100    -7.0290 ha         1 303       0.116000
     36 H13          5.2570     0.0020    -4.8840 ha         1 303       0.144000
     37 H2           5.2310     0.0080    -2.4280 ha         1 303       0.125000
     38 H3           4.1250     0.0050    -0.4320 ha         1 303       0.099000
     39 H22          2.5420    -0.0640    -8.5270 hn         1 303       0.168500
     40 H28          2.9630    -1.2450   -10.7770 ha         1 303       0.118000
     41 H25          6.8870     1.7220   -11.0860 ha         1 303       0.112000
     42 H24          5.6570     1.5390    -8.9610 ha         1 303       0.128000
     43 H321         7.2970    -0.0490   -13.3510 hc         1 303       0.029700
     44 H322         6.5820     1.5540   -13.5960 hc         1 303       0.029700
     45 H331         4.6690     0.5930   -14.7320 h1         1 303       0.028200
     46 H332         6.1330    -0.0790   -15.4740 h1         1 303       0.028200
     47 H34          5.8460    -1.9090   -13.8270 hn         1 303       0.270800
     48 H35          3.1840    -0.7290   -13.6900 h1         1 303       0.047700
     49 H40          2.7660    -2.5300   -12.0480 hc         1 303       0.023700
     50 H421         2.3290    -2.8430   -14.5220 hc         1 303       0.009700
     51 H422         2.5890    -4.3490   -13.6320 hc         1 303       0.009700
     52 H423         3.8870    -3.6750   -14.6280 hc         1 303       0.009700
     53 H461         5.3410    -2.6710   -11.5670 hc         1 303       0.009700
     54 H462         5.3500    -3.8220   -12.9100 hc         1 303       0.009700
     55 H463         4.3690    -4.1450   -11.4750 hc         1 303       0.009700
     56 H193         1.3390     0.0080     1.9530 hn         1 303       0.226133
@<TRIPOS>BOND
     1     1     2 2   
     2     1    30 1   
     3     2     3 1   
     4     2     4 1   
     5     3    31 1   
     6     3    32 1   
     7     3    56 1   
     8     4     5 ar  
     9     4    13 ar  
    10     5     6 ar  
    11     5    33 1   
    12     6     7 ar  
    13     6    11 ar  
    14     7     8 ar  
    15     7    34 1   
    16     8     9 ar  
    17     8    35 1   
    18     9    10 ar  
    19     9    14 1   
    20    10    11 ar  
    21    10    36 1   
    22    11    12 ar  
    23    12    13 ar  
    24    12    37 1   
    25    13    38 1   
    26    14    15 2   
    27    14    16 1   
    28    16    17 1   
    29    16    39 1   
    30    17    18 ar  
    31    17    22 ar  
    32    18    19 ar  
    33    18    40 1   
    34    19    20 ar  
    35    19    26 1   
    36    20    21 ar  
    37    20    23 1   
    38    21    22 ar  
    39    21    41 1   
    40    22    42 1   
    41    23    24 1   
    42    23    43 1   
    43    23    44 1   
    44    24    25 1   
    45    24    45 1   
    46    24    46 1   
    47    25    26 1   
    48    25    47 1   
    49    26    27 1   
    50    26    48 1   
    51    27    28 1   
    52    27    29 1   
    53    27    49 1   
    54    28    50 1   
    55    28    51 1   
    56    28    52 1   
    57    29    53 1   
    58    29    54 1   
    59    29    55 1   
@<TRIPOS>SUBSTRUCTURE
     1 303         1 TEMP              0 ****  ****    0 ROOT
