@<TRIPOS>MOLECULE
molecule
   46    47     1     0     0
SMALL
bcc


@<TRIPOS>ATOM
      1 C1           0.0000     0.0000     0.0000 ca         1 304      -0.122000
      2 C2           1.3800     0.0000     0.0000 ca         1 304      -0.123000
      3 C3           0.0050     0.0010     2.4140 ca         1 304      -0.064000
      4 C4           2.0380     1.3950     7.0540 cc         1 304       0.505200
      5 C5          -0.6970     0.0010     1.2100 ca         1 304      -0.136600
      6 C6           2.0770     0.0000     1.1940 ca         1 304      -0.094300
      7 C7           1.3920     0.0000     2.4030 ca         1 304       0.048600
      8 C8           2.4060     0.7540     5.9030 cd         1 304      -0.280000
      9 C9           4.0230     0.6650     7.7600 cd         1 304       0.755300
     10 C10         -2.1760     0.0020     1.2130 c          1 304       0.672700
     11 C11          1.6170     0.6690     4.6750 c          1 304       0.720700
     12 C12          3.5840    -0.0000     1.1840 c3         1 304      -0.049800
     13 C14          5.4400     2.5240     9.9600 c3         1 304      -0.112100
     14 C15         -4.3180     0.0020     0.0510 c3         1 304       0.105300
     15 C16          5.8560     0.2710    10.9540 c3         1 304      -0.099400
     16 C17          4.9690     1.0690     9.9970 c3         1 304       0.240500
     17 N18          2.9260     1.3220     8.0110 nc         1 304      -0.784000
     18 N19          2.1010     0.0020     3.6090 ns         1 304      -0.475100
     19 N20          5.0570     0.4920     8.6540 nu         1 304      -0.878900
     20 N21         -2.8530     0.0020     0.0480 ns         1 304      -0.589900
     21 O22         -2.7810     0.0020     2.2680 o          1 304      -0.599100
     22 O23          0.5230     1.2020     4.6140 o          1 304      -0.588100
     23 S24          3.9980     0.0470     6.1660 ss         1 304      -0.259300
     24 H1          -0.5420     0.0000    -0.9380 ha         1 304       0.123000
     25 H2           1.9190    -0.0000    -0.9400 ha         1 304       0.133000
     26 H3          -0.5310     0.0010     3.3560 ha         1 304       0.193000
     27 H4           1.0950     1.9170     7.1620 h4         1 304       0.067100
     28 H12          3.9470    -0.9340     1.5980 hc         1 304       0.044700
     29 H12A         3.9490     0.8260     1.7820 hc         1 304       0.044700
     30 H12B         3.9380     0.1060     0.1660 hc         1 304       0.044700
     31 H13          5.6300    -1.7420    10.2380 hc         1 304       0.037700
     32 H13A         5.6900    -1.5990    12.0000 hc         1 304       0.037700
     33 H13B         4.2300    -1.1230    11.1230 hc         1 304       0.037700
     34 H14A         5.4360     2.9310    10.9640 hc         1 304       0.045033
     35 H14B         4.7720     3.1040     9.3330 hc         1 304       0.045033
     36 H15         -4.6780    -0.8820     0.5650 h1         1 304       0.041367
     37 H15A        -4.6810     0.0000    -0.9690 h1         1 304       0.041367
     38 H15B        -4.6780     0.8870     0.5610 h1         1 304       0.041367
     39 H16          6.8670     0.2360    10.5640 hc         1 304       0.050700
     40 H16A         5.8610     0.7490    11.9260 hc         1 304       0.050700
     41 H17          3.9420     1.0310    10.3400 h1         1 304       0.085700
     42 HN19         2.9440    -0.5320     3.6940 hn         1 304       0.324500
     43 HN20         5.8760    -0.0140     8.3800 hn         1 304       0.452800
     44 HN21        -2.3550     0.0030    -0.8200 hn         1 304       0.312500
     45 H14          6.4440     2.5690     9.5550 hc         1 304       0.045033
     46 C13          5.3120    -1.1520    11.0880 c3         1 304      -0.093100
@<TRIPOS>BOND
     1     1     2 ar  
     2     1     5 ar  
     3     2     6 ar  
     4     3     5 ar  
     5     3     7 ar  
     6     4     8 2   
     7     4    17 1   
     8     5    10 1   
     9     6     7 ar  
    10     6    12 1   
    11     7    18 1   
    12     8    11 1   
    13     8    23 1   
    14     9    17 2   
    15     9    19 1   
    16     9    23 1   
    17    10    20 1   
    18    10    21 2   
    19    11    18 1   
    20    11    22 2   
    21    46    15 1   
    22    13    16 1   
    23    14    20 1   
    24    15    16 1   
    25    16    19 1   
    26     1    24 1   
    27     2    25 1   
    28     3    26 1   
    29     4    27 1   
    30    12    28 1   
    31    12    29 1   
    32    12    30 1   
    33    46    31 1   
    34    46    32 1   
    35    46    33 1   
    36    13    45 1   
    37    13    34 1   
    38    13    35 1   
    39    14    36 1   
    40    14    37 1   
    41    14    38 1   
    42    15    39 1   
    43    15    40 1   
    44    16    41 1   
    45    18    42 1   
    46    19    43 1   
    47    20    44 1   
@<TRIPOS>SUBSTRUCTURE
     1 304         1 TEMP              0 ****  ****    0 ROOT
