@<TRIPOS>MOLECULE
304
   46    47     1     0     0
SMALL
bcc


@<TRIPOS>ATOM
      1 C1           0.0000     0.0000     0.0000 ca         1 304      -0.099000
      2 C2           1.3800     0.0000     0.0000 ca         1 304      -0.096000
      3 C3           0.0050     0.0010     2.4140 ca         1 304      -0.036000
      4 C4           2.0380     1.3950     7.0540 cc         1 304       0.511200
      5 C5          -0.6970     0.0010     1.2100 ca         1 304      -0.143600
      6 C6           2.0770     0.0000     1.1940 ca         1 304      -0.100300
      7 C7           1.3920     0.0000     2.4030 ca         1 304      -0.097400
      8 C8           2.4060     0.7540     5.9030 cd         1 304      -0.270000
      9 C9           4.0230     0.6650     7.7600 cd         1 304       0.597300
     10 C10         -2.1760     0.0020     1.2130 c          1 304       0.594700
     11 C11          1.6170     0.6690     4.6750 c          1 304       0.641700
     12 C12          3.5840    -0.0000     1.1840 c3         1 304       0.060200
     13 C14          5.4400     2.5240     9.9600 c3         1 304      -0.017100
     14 C15         -4.3180     0.0020     0.0510 c3         1 304       0.088300
     15 C16          5.8560     0.2710    10.9540 c3         1 304      -0.040400
     16 C17          4.9690     1.0690     9.9970 c3         1 304       0.123500
     17 N18          2.9260     1.3220     8.0110 nc         1 304      -0.692000
     18 N19          2.1010     0.0020     3.6090 ns         1 304      -0.038100
     19 N20          5.0570     0.4920     8.6540 nu         1 304      -0.436900
     20 N21         -2.8530     0.0020     0.0480 ns         1 304      -0.204900
     21 O22         -2.7810     0.0020     2.2680 o          1 304      -0.639100
     22 O23          0.5230     1.2020     4.6140 o          1 304      -0.630100
     23 S24          3.9980     0.0470     6.1660 ss         1 304      -0.341300
     24 H1          -0.5420     0.0000    -0.9380 ha         1 304       0.100000
     25 H2           1.9190    -0.0000    -0.9400 ha         1 304       0.107000
     26 H3          -0.5310     0.0010     3.3560 ha         1 304       0.170000
     27 H4           1.0950     1.9170     7.1620 h4         1 304       0.017100
     28 H12          3.9470    -0.9340     1.5980 hc         1 304       0.009367
     29 H12A         3.9490     0.8260     1.7820 hc         1 304       0.009367
     30 H12B         3.9380     0.1060     0.1660 hc         1 304       0.009367
     31 H13          5.6300    -1.7420    10.2380 hc         1 304       0.006033
     32 H13A         5.6900    -1.5990    12.0000 hc         1 304       0.006033
     33 H13B         4.2300    -1.1230    11.1230 hc         1 304       0.006033
     34 H14A         5.4360     2.9310    10.9640 hc         1 304       0.013700
     35 H14B         4.7720     3.1040     9.3330 hc         1 304       0.013700
     36 H15         -4.6780    -0.8820     0.5650 h1         1 304       0.008367
     37 H15A        -4.6810     0.0000    -0.9690 h1         1 304       0.008367
     38 H15B        -4.6780     0.8870     0.5610 h1         1 304       0.008367
     39 H16          6.8670     0.2360    10.5640 hc         1 304       0.023200
     40 H16A         5.8610     0.7490    11.9260 hc         1 304       0.023200
     41 H17          3.9420     1.0310    10.3400 h1         1 304       0.063700
     42 HN19         2.9440    -0.5320     3.6940 hn         1 304       0.175500
     43 HN20         5.8760    -0.0140     8.3800 hn         1 304       0.298800
     44 HN21        -2.3550     0.0030    -0.8200 hn         1 304       0.174500
     45 H14          6.4440     2.5690     9.5550 hc         1 304       0.013700
     46 C13          5.3120    -1.1520    11.0880 c3         1 304      -0.000100
@<TRIPOS>BOND
     1     1     2 ar  
     2     1     5 ar  
     3     1    24 1   
     4     2     6 ar  
     5     2    25 1   
     6     3     5 ar  
     7     3     7 ar  
     8     3    26 1   
     9     4     8 2   
    10     4    17 1   
    11     4    27 1   
    12     5    10 1   
    13     6     7 ar  
    14     6    12 1   
    15     7    18 1   
    16     8    11 1   
    17     8    23 1   
    18     9    17 2   
    19     9    19 1   
    20     9    23 1   
    21    10    20 1   
    22    10    21 2   
    23    11    18 1   
    24    11    22 2   
    25    12    28 1   
    26    12    29 1   
    27    12    30 1   
    28    13    16 1   
    29    13    34 1   
    30    13    35 1   
    31    13    45 1   
    32    14    20 1   
    33    14    36 1   
    34    14    37 1   
    35    14    38 1   
    36    15    16 1   
    37    15    39 1   
    38    15    40 1   
    39    15    46 1   
    40    16    19 1   
    41    16    41 1   
    42    18    42 1   
    43    19    43 1   
    44    20    44 1   
    45    31    46 1   
    46    32    46 1   
    47    33    46 1   
@<TRIPOS>SUBSTRUCTURE
     1 304         1 TEMP              0 ****  ****    0 ROOT
