@<TRIPOS>MOLECULE
307
   74    78     1     0     0
SMALL
bcc


@<TRIPOS>ATOM
      1 F9         -0.6090    0.1750   -0.6930 f         1 307     -0.223300
      2 C7          0.6150   -0.0450   -0.1060 c3        1 307      0.689200
      3 F10         0.3470   -0.1250    1.2360 f         1 307     -0.223300
      4 F8          1.2890    1.1390   -0.2650 f         1 307     -0.223300
      5 C6          1.3540   -1.2580   -0.6740 ca        1 307     -0.149300
      6 C11         1.2450   -1.5280   -2.0380 ca        1 307     -0.089000
      7 C5          2.1310   -2.0620    0.1600 ca        1 307     -0.053000
      8 C4          2.8020   -3.1600   -0.3810 ca        1 307     -0.109000
      9 C3          2.6990   -3.4620   -1.7360 ca        1 307     -0.097000
     10 C1          1.9150   -2.6440   -2.5770 ca        1 307     -0.049200
     11 N2          1.7890   -2.9370   -3.9590 na        1 307      0.057500
     12 C12         0.6120   -2.8670   -4.6730 cc        1 307     -0.010100
     13 C16         2.8380   -3.2740   -4.8480 ca        1 307     -0.052200
     14 C20         4.2150   -3.4250   -4.6290 ca        1 307     -0.096000
     15 C19         5.0110   -3.7400   -5.7220 ca        1 307     -0.100000
     16 C18         4.4650   -3.8950   -7.0090 ca        1 307     -0.096000
     17 C15         2.2690   -3.4340   -6.1640 ca        1 307     -0.070800
     18 C17         3.1050   -3.7420   -7.2390 ca        1 307     -0.135000
     19 C13         0.8480   -3.1760   -6.0320 cd        1 307     -0.314400
     20 C14        -0.1240   -3.1220   -7.1050 c3        1 307      0.249000
     21 N21        -0.7860   -4.5050   -7.3210 n4        1 307     -0.703400
     22 C22         0.1620   -5.4340   -7.9840 c3        1 307      0.068100
     23 C23        -2.0510   -4.3510   -8.0890 c3        1 307      0.077800
     24 C24        -2.8450   -5.6650   -8.2360 c3        1 307      0.078800
     25 N25        -4.1760   -5.4840   -8.8890 n4        1 307     -0.686400
     26 C28        -5.1530   -4.8590   -7.9590 c3        1 307      0.077100
     27 C26        -4.6710   -6.8400   -9.3940 c3        1 307      0.218000
     28 C27        -5.9690   -6.7630  -10.0930 cc        1 307     -0.435400
     29 C29        -6.0580   -6.7530  -11.4560 cd        1 307      0.198100
     30 O30        -7.2110   -6.8080  -12.1500 os        1 307     -0.170200
     31 C31        -8.4040   -6.9470  -11.4270 ca        1 307      0.100100
     32 C32        -8.4260   -6.9830  -10.0230 ca        1 307     -0.212600
     33 C35        -9.6670   -7.1380   -9.3870 ca        1 307     -0.042000
     34 C33        -7.1860   -6.8690   -9.2650 c         1 307      0.613900
     35 O34        -7.1120   -6.8430   -8.0250 o         1 307     -0.585100
     36 C40        -9.5660   -7.0530  -12.1960 ca        1 307     -0.129000
     37 C38       -10.7930   -7.2050  -11.5420 ca        1 307      0.006700
     38 C39       -12.0370   -7.3240  -12.3350 c3        1 307     -0.077800
     39 C36       -10.8430   -7.2490  -10.1310 ca        1 307     -0.072300
     40 C37       -12.1430   -7.4150   -9.4410 c3        1 307     -0.068800
     41 H11         0.6390   -0.8600   -2.6720 ha        1 307      0.158000
     42 H5          2.2110   -1.8310    1.2370 ha        1 307      0.180000
     43 H4          3.4200   -3.7990    0.2730 ha        1 307      0.170000
     44 H3          3.2300   -4.3380   -2.1420 ha        1 307      0.157000
     45 H12        -0.3280   -2.5890   -4.1830 h4        1 307      0.183000
     46 H20         4.6520   -3.2830   -3.6290 ha        1 307      0.164000
     47 H19         6.0980   -3.8600   -5.5820 ha        1 307      0.166000
     48 H18         5.1390   -4.1310   -7.8490 ha        1 307      0.158000
     49 H17         2.6970   -3.8350   -8.2550 ha        1 307      0.122000
     50 H141        0.3550   -2.8490   -8.0880 hx        1 307      0.099700
     51 H142       -0.9620   -2.4060   -6.8700 hx        1 307      0.099700
     52 H221       -0.2360   -6.4810   -7.9510 hx        1 307      0.109700
     53 H222        0.3290   -5.1160   -9.0460 hx        1 307      0.109700
     54 H223        1.1470   -5.3930   -7.4320 hx        1 307      0.109700
     55 H231       -1.7860   -3.9460   -9.1090 hx        1 307      0.112200
     56 H232       -2.6790   -3.5780   -7.5550 hx        1 307      0.112200
     57 H241       -3.0250   -6.1350   -7.2240 hx        1 307      0.116200
     58 H242       -2.2450   -6.3910   -8.8610 hx        1 307      0.116200
     59 H281       -6.1060   -4.6450   -8.5210 hx        1 307      0.116367
     60 H282       -5.4040   -5.5760   -7.1260 hx        1 307      0.116367
     61 H283       -4.7360   -3.9050   -7.5480 hx        1 307      0.116367
     62 H261       -4.7770   -7.4980   -8.4800 hx        1 307      0.108700
     63 H262       -3.8650   -7.2420  -10.0710 hx        1 307      0.108700
     64 H29        -5.2040   -6.7040  -12.1610 h4        1 307      0.188000
     65 H35        -9.6960   -7.1740   -8.2840 ha        1 307      0.171000
     66 H40        -9.5070   -7.0220  -13.2960 ha        1 307      0.175000
     67 H391      -12.5390   -8.3020  -12.1160 hc        1 307      0.071367
     68 H392      -11.8350   -7.2680  -13.4330 hc        1 307      0.071367
     69 H393      -12.7480   -6.5030  -12.0610 hc        1 307      0.071367
     70 H371      -12.0200   -7.4310   -8.3300 hc        1 307      0.065367
     71 H372      -12.8340   -6.5760   -9.7100 hc        1 307      0.065367
     72 H373      -12.6270   -8.3760   -9.7570 hc        1 307      0.065367
     73 H211       -1.0000   -4.8850   -6.3890 hn        1 307      0.447800
     74 H251       -4.0700   -4.8660   -9.7020 hn        1 307      0.439800
@<TRIPOS>BOND
     1    1    2 1   
     2    2    3 1   
     3    2    4 1   
     4    2    5 1   
     5    5    6 ar  
     6    5    7 ar  
     7    6   10 ar  
     8    6   41 1   
     9    7    8 ar  
    10    7   42 1   
    11    8    9 ar  
    12    8   43 1   
    13    9   10 ar  
    14    9   44 1   
    15   10   11 1   
    16   11   12 1   
    17   11   13 1   
    18   12   19 2   
    19   12   45 1   
    20   13   14 ar  
    21   13   17 ar  
    22   14   15 ar  
    23   14   46 1   
    24   15   16 ar  
    25   15   47 1   
    26   16   18 ar  
    27   16   48 1   
    28   17   18 ar  
    29   17   19 1   
    30   18   49 1   
    31   19   20 1   
    32   20   21 1   
    33   20   50 1   
    34   20   51 1   
    35   21   22 1   
    36   21   23 1   
    37   21   73 1   
    38   22   52 1   
    39   22   53 1   
    40   22   54 1   
    41   23   24 1   
    42   23   55 1   
    43   23   56 1   
    44   24   25 1   
    45   24   57 1   
    46   24   58 1   
    47   25   26 1   
    48   25   27 1   
    49   25   74 1   
    50   26   59 1   
    51   26   60 1   
    52   26   61 1   
    53   27   28 1   
    54   27   62 1   
    55   27   63 1   
    56   28   29 2   
    57   28   34 1   
    58   29   30 1   
    59   29   64 1   
    60   30   31 1   
    61   31   32 ar  
    62   31   36 ar  
    63   32   33 ar  
    64   32   34 1   
    65   33   39 ar  
    66   33   65 1   
    67   34   35 2   
    68   36   37 ar  
    69   36   66 1   
    70   37   38 1   
    71   37   39 ar  
    72   38   67 1   
    73   38   68 1   
    74   38   69 1   
    75   39   40 1   
    76   40   70 1   
    77   40   71 1   
    78   40   72 1   
@<TRIPOS>SUBSTRUCTURE
     1 307         1 TEMP              0 ****  ****    0 ROOT
