@<TRIPOS>MOLECULE
molecule
   29    31     1     0     0
SMALL
bcc


@<TRIPOS>ATOM
      1 N1           1.4690     0.0000     0.0000 nz         1 308      -0.807600
      2 C10          0.0000     0.0000     0.0000 c3         1 308       0.107200
      3 C7          -0.5090     0.0000     1.4420 c3         1 308      -0.085733
      4 C1          -2.0400    -0.0000     1.4430 c3         1 308      -0.057033
      5 C8          -0.5110     1.2480    -0.7220 c3         1 308      -0.085733
      6 C5          -2.0400     1.2480    -0.7220 c3         1 308      -0.057033
      7 C6          -2.5500     1.2490     0.7220 c3         1 308      -0.079400
      8 C4          -2.5500    -0.0010    -1.4420 c3         1 308      -0.079400
      9 C9          -0.5090    -1.2500    -0.7210 c3         1 308      -0.085733
     10 C3          -2.0390    -1.2500    -0.7210 c3         1 308      -0.057033
     11 C2          -2.5490    -1.2500     0.7230 c3         1 308      -0.079400
     12 HN1          1.8030     0.8170     0.4710 hn         1 308       0.450467
     13 HN1A         1.8030    -0.0000    -0.9440 hn         1 308       0.450467
     14 H7          -0.1480    -0.8840     1.9530 hc         1 308       0.060367
     15 H7A         -0.1480     0.8850     1.9530 hc         1 308       0.060367
     16 H1          -2.4000    -0.0000     2.4640 hc         1 308       0.085700
     17 H8          -0.1500     2.1330    -0.2120 hc         1 308       0.060367
     18 H8A         -0.1500     1.2480    -1.7430 hc         1 308       0.060367
     19 H5          -2.4010     2.1320    -1.2330 hc         1 308       0.085700
     20 H6          -2.1890     2.1330     1.2320 hc         1 308       0.065700
     21 H6A         -3.6340     1.2480     0.7220 hc         1 308       0.065700
     22 H4          -2.1910    -0.0020    -2.4640 hc         1 308       0.065700
     23 H4A         -3.6340    -0.0020    -1.4400 hc         1 308       0.065700
     24 H9          -0.1480    -2.1340    -0.2100 hc         1 308       0.060367
     25 H9A         -0.1480    -1.2500    -1.7420 hc         1 308       0.060367
     26 H3          -2.4000    -2.1350    -1.2310 hc         1 308       0.085700
     27 H2          -3.6320    -1.2500     0.7230 hc         1 308       0.065700
     28 H2A         -2.1880    -2.1340     1.2340 hc         1 308       0.065700
     29 H13          1.8030    -0.8170     0.4720 hn         1 308       0.450467
@<TRIPOS>BOND
     1     1     2 1
     2     2     3 1
     3     2     5 1
     4     2     9 1
     5     3     4 1
     6     4     7 1
     7     4    11 1
     8     5     6 1
     9     6     7 1
    10     6     8 1
    11     8    10 1
    12     9    10 1
    13    10    11 1
    14     1    12 1
    15     1    13 1
    16     3    14 1
    17     3    15 1
    18     4    16 1
    19     5    17 1
    20     5    18 1
    21     6    19 1
    22     7    20 1
    23     7    21 1
    24     8    22 1
    25     8    23 1
    26     9    24 1
    27     9    25 1
    28    10    26 1
    29    11    27 1
    30    11    28 1
    31    29     1 1
@<TRIPOS>SUBSTRUCTURE
     1 308         1 TEMP              0 ****  ****    0 ROOT
