@<TRIPOS>MOLECULE
molecule
   30    32     1     0     0
SMALL
bcc


@<TRIPOS>ATOM
      1 Cl           0.0000     0.0000     0.0000 cl         1 30A      -0.170000
      2 C1           5.1110     0.0000     0.7310 cc         1 30A      -0.269800
      3 C2           5.2480     0.0000     2.1870 c          1 30A       0.902800
      4 O3           4.2550    -0.0000     2.8910 o          1 30A      -0.825800
      5 C4           3.9050     0.0000     0.0000 cd         1 30A       0.396500
      6 O4           6.4740    -0.0000     2.7490 o          1 30A      -0.825800
      7 N5           4.2480     0.0000    -1.3220 na         1 30A      -0.015800
      8 C6           3.2690     0.0020    -2.2750 cc         1 30A       0.238800
      9 O7           3.5900     0.0010    -3.5880 oh         1 30A      -0.493100
     10 C8           1.9590     0.0010    -1.8810 cd         1 30A      -0.283600
     11 C9           0.8550     0.0010    -2.9060 c3         1 30A       0.036200
     12 C10          0.4020    -1.4140    -3.1580 ca         1 30A      -0.057300
     13 C11         -0.6160    -1.9590    -2.3990 ca         1 30A      -0.114500
     14 C12         -1.0310    -3.2570    -2.6300 ca         1 30A      -0.141500
     15 C13         -0.4270    -4.0110    -3.6200 ca         1 30A      -0.138000
     16 C14          0.5910    -3.4660    -4.3790 ca         1 30A      -0.141500
     17 C15          1.0030    -2.1660    -4.1510 ca         1 30A      -0.114500
     18 C16          1.6560     0.0000    -0.5190 cc         1 30A       0.527300
     19 N18          2.6270    -0.0000     0.3750 nd         1 30A      -0.592000
     20 N19          5.6440     0.0010    -1.4110 nd         1 30A      -0.618100
     21 C20          6.1590     0.0060    -0.2100 cc         1 30A       0.435500
     22 H20          7.2170     0.0140     0.0230 h4         1 30A       0.079800
     23 H91C         1.2210     0.4330    -3.8300 hc         1 30A       0.055700
     24 H92C         0.0210     0.5870    -2.5390 hc         1 30A       0.055700
     25 H11         -1.1260    -1.3510    -1.6610 ha         1 30A       0.138000
     26 H15          1.6370    -1.9360    -4.9990 ha         1 30A       0.138000
     27 H12         -1.8290    -3.6850    -2.0350 ha         1 30A       0.122000
     28 H13         -0.7500    -5.0290    -3.7980 ha         1 30A       0.118000
     29 H14          1.0630    -4.0550    -5.1550 ha         1 30A       0.122000
     30 H7           4.0940     0.7730    -3.7890 ho         1 30A       0.436000
@<TRIPOS>BOND
     1     1    18 1
     2     2     3 1
     3     2     5 2
     4     2    21 1
     5     3     4 1
     6     3     6 1
     7     5     7 1
     8     5    19 1
     9     7     8 1
    10     7    20 1
    11     8     9 1
    12     8    10 2
    13    10    11 1
    14    10    18 1
    15    11    12 1
    16    12    13 ar
    17    12    17 ar
    18    13    14 ar
    19    14    15 ar
    20    15    16 ar
    21    16    17 ar
    22    18    19 2
    23    20    21 2
    24    21    22 1
    25    11    23 1
    26    11    24 1
    27    13    25 1
    28    17    26 1
    29    14    27 1
    30    15    28 1
    31    16    29 1
    32     9    30 1
@<TRIPOS>SUBSTRUCTURE
     1 30A         1 TEMP              0 ****  ****    0 ROOT
