@<TRIPOS>MOLECULE
30A
   30    32     1     0     0
SMALL
bcc


@<TRIPOS>ATOM
      1 CL          0.0380   -0.1170    0.2020 cl        1 30A     -0.178000
      2 C1          5.1730    0.1260    0.7780 cc        1 30A     -0.235800
      3 C2          5.5720    0.1770    2.2330 c         1 30A      0.935800
      4 O3          4.6820    0.2410    3.1160 o         1 30A     -0.810300
      5 C4          3.9240    0.0540    0.1310 cd        1 30A      0.379500
      6 O4          6.8180    0.1600    2.4550 o         1 30A     -0.810300
      7 N5          4.2460    0.0460   -1.3100 na        1 30A     -0.042800
      8 C6          3.2050   -0.0090   -2.2260 cc        1 30A      0.240800
      9 O7          3.4390   -0.0180   -3.5840 oh        1 30A     -0.505100
     10 C8          1.8820   -0.0570   -1.7850 cd        1 30A     -0.294600
     11 C9          0.7680   -0.0810   -2.7660 c3        1 30A      0.039200
     12 C10         0.3200   -1.4600   -3.1230 ca        1 30A     -0.063300
     13 C11        -0.9100   -1.9500   -2.6720 ca        1 30A     -0.121000
     14 C12        -1.3350   -3.2280   -3.0360 ca        1 30A     -0.135000
     15 C13        -0.5350   -4.0260   -3.8520 ca        1 30A     -0.140000
     16 C14         0.6950   -3.5440   -4.3020 ca        1 30A     -0.135000
     17 C15         1.1200   -2.2680   -3.9410 ca        1 30A     -0.121000
     18 C16         1.6700   -0.0550   -0.3520 cc        1 30A      0.521300
     19 N18         2.6200   -0.0030    0.5660 nd        1 30A     -0.581000
     20 N19         5.5720    0.1070   -1.5270 nd        1 30A     -0.624100
     21 C20         6.1440    0.1530   -0.2980 cc        1 30A      0.403500
     22 H20         7.2260    0.2030   -0.1460 h4        1 30A      0.070800
     23 H91C       -0.1000    0.5070   -2.3600 hc        1 30A      0.058200
     24 H92C        1.1040    0.4360   -3.7100 hc        1 30A      0.058200
     25 H11        -1.5390   -1.3280   -2.0170 ha        1 30A      0.139000
     26 H15         2.0940   -1.8840   -4.2850 ha        1 30A      0.139000
     27 H12        -2.3000   -3.6070   -2.6720 ha        1 30A      0.122500
     28 H13        -0.8680   -5.0340   -4.1350 ha        1 30A      0.120000
     29 H14         1.3320   -4.1740   -4.9390 ha        1 30A      0.122500
     30 H7          4.3860    0.1000   -3.7640 ho        1 30A      0.451000
@<TRIPOS>BOND
     1    1   18 1   
     2    2    3 1   
     3    2    5 2   
     4    2   21 1   
     5    3    4 1   
     6    3    6 1   
     7    5    7 1   
     8    5   19 1   
     9    7    8 1   
    10    7   20 1   
    11    8    9 1   
    12    8   10 2   
    13    9   30 1   
    14   10   11 1   
    15   10   18 1   
    16   11   12 1   
    17   11   23 1   
    18   11   24 1   
    19   12   13 ar  
    20   12   17 ar  
    21   13   14 ar  
    22   13   25 1   
    23   14   15 ar  
    24   14   27 1   
    25   15   16 ar  
    26   15   28 1   
    27   16   17 ar  
    28   16   29 1   
    29   17   26 1   
    30   18   19 2   
    31   20   21 2   
    32   21   22 1   
@<TRIPOS>SUBSTRUCTURE
     1 30A         1 TEMP              0 ****  ****    0 ROOT
