@<TRIPOS>MOLECULE
30E
   57    59     1     0     0
SMALL
bcc


@<TRIPOS>ATOM
      1 C01          0.0000     0.0000     0.0000 c3         1 30E       0.007900
      2 C02          1.5300     0.0000     0.0000 c3         1 30E      -0.086400
      3 C03          2.0410     0.0000     1.4420 c3         1 30E      -0.015700
      4 C04          1.6350    -1.3070     2.1280 c3         1 30E       0.141800
      5 N05          2.2350    -2.4420     1.4130 nh         1 30E      -0.507300
      6 C06          1.7810    -3.6520     1.9300 ca         1 30E       0.327900
      7 N07          2.0360    -3.9730     3.1880 nb         1 30E      -0.525000
      8 C08          1.6000    -5.1320     3.6790 cp         1 30E       0.241500
      9 C09          1.8850    -5.4930     5.0890 cp         1 30E      -0.039500
     10 C10          1.5220    -6.7490     5.5750 ca         1 30E      -0.235500
     11 C11          1.7880    -7.0840     6.8910 ca         1 30E       0.160600
     12 O12          1.4340    -8.3080     7.3650 os         1 30E      -0.298900
     13 C13          0.7900    -9.1970     6.4500 c3         1 30E       0.238200
     14 C14          2.4180    -6.1690     7.7280 ca         1 30E       0.031100
     15 O15          2.6800    -6.5010     9.0220 os         1 30E      -0.311900
     16 C16          3.9380    -7.1220     9.2910 c3         1 30E       0.249700
     17 C17          2.7820    -4.9170     7.2450 ca         1 30E       0.160600
     18 O18          3.4000    -4.0250     8.0660 os         1 30E      -0.298900
     19 C19          3.7450    -2.7580     7.5030 c3         1 30E       0.238200
     20 C20          2.5220    -4.5800     5.9280 ca         1 30E      -0.235500
     21 C21          0.8780    -6.0030     2.8710 ca         1 30E       0.330900
     22 N22          0.6230    -5.6850     1.6140 nb         1 30E      -0.638000
     23 C23          1.0490    -4.5320     1.1200 ca         1 30E       0.411900
     24 N24          0.7730    -4.1960    -0.2020 nv         1 30E      -0.513500
     25 C25          3.7020    -2.3730     1.4430 c3         1 30E       0.142800
     26 C26          4.1680    -1.0980     0.7370 c3         1 30E      -0.013400
     27 C27          3.5660     0.1200     1.4440 c3         1 30E      -0.151700
     28 C28          3.9740     1.3760     0.7190 c          1 30E       0.986600
     29 O29          3.1310     2.1020     0.2460 o          1 30E      -0.892800
     30 O30          5.2730     1.6890     0.5950 o          1 30E      -0.892800
     31 H011        -0.3610    -1.0200    -0.0520 hc         1 30E      -0.014633
     32 H012        -0.3610     0.4650     0.9090 hc         1 30E      -0.014633
     33 H013        -0.3610     0.5550    -0.8580 hc         1 30E      -0.014633
     34 H021         1.8910     0.8840    -0.5110 hc         1 30E       0.058200
     35 H022         1.8910    -0.8840    -0.5110 hc         1 30E       0.058200
     36 H03          1.6140     0.8370     1.9820 hc         1 30E       0.036700
     37 H041         1.9870    -1.3010     3.1520 h1         1 30E       0.007200
     38 H042         0.5560    -1.4020     2.1120 h1         1 30E       0.007200
     39 H27          3.9230     0.1560     2.4670 hc         1 30E       0.020700
     40 H251         4.0400    -2.3580     2.4720 h1         1 30E       0.002700
     41 H252         4.1130    -3.2370     0.9350 h1         1 30E       0.002700
     42 H21          0.5270    -6.9460     3.2720 h4         1 30E      -0.016900
     43 H10          1.0670    -7.4750     4.9120 ha         1 30E       0.141000
     44 H20          2.8060    -3.6050     5.5520 ha         1 30E       0.141000
     45 H131         0.5630   -10.1290     6.9530 h1         1 30E      -0.000967
     46 H132        -0.1280    -8.7460     6.0930 h1         1 30E      -0.000967
     47 H133         1.4480    -9.3900     5.6120 h1         1 30E      -0.000967
     48 H161         4.5370    -6.4700     9.9150 h1         1 30E      -0.012633
     49 H162         4.4570    -7.3050     8.3580 h1         1 30E      -0.012633
     50 H163         3.7750    -8.0630     9.8030 h1         1 30E      -0.012633
     51 H191         4.2390    -2.1520     8.2530 h1         1 30E      -0.000967
     52 H192         2.8460    -2.2550     7.1670 h1         1 30E      -0.000967
     53 H193         4.4110    -2.9060     6.6620 h1         1 30E      -0.000967
     54 H241         1.4300    -3.6530    -0.7280 hn         1 30E       0.277800
     55 H242        -0.0670    -4.5240    -0.6370 hn         1 30E       0.277800
     56 H261         3.8370    -1.1160    -0.2940 hc         1 30E       0.030200
     57 H262         5.2490    -1.0400     0.7760 hc         1 30E       0.030200
@<TRIPOS>BOND
     1     1     2 1   
     2     1    31 1   
     3     1    32 1   
     4     1    33 1   
     5     2     3 1   
     6     2    34 1   
     7     2    35 1   
     8     3     4 1   
     9     3    27 1   
    10     3    36 1   
    11     4     5 1   
    12     4    37 1   
    13     4    38 1   
    14     5     6 1   
    15     5    25 1   
    16     6     7 ar  
    17     6    23 ar  
    18     7     8 ar  
    19     8     9 1   
    20     8    21 ar  
    21     9    10 ar  
    22     9    20 ar  
    23    10    11 ar  
    24    10    43 1   
    25    11    12 1   
    26    11    14 ar  
    27    12    13 1   
    28    13    45 1   
    29    13    46 1   
    30    13    47 1   
    31    14    15 1   
    32    14    17 ar  
    33    15    16 1   
    34    16    48 1   
    35    16    49 1   
    36    16    50 1   
    37    17    18 1   
    38    17    20 ar  
    39    18    19 1   
    40    19    51 1   
    41    19    52 1   
    42    19    53 1   
    43    20    44 1   
    44    21    22 ar  
    45    21    42 1   
    46    22    23 ar  
    47    23    24 1   
    48    24    54 1   
    49    24    55 1   
    50    25    26 1   
    51    25    40 1   
    52    25    41 1   
    53    26    27 1   
    54    26    56 1   
    55    26    57 1   
    56    27    28 1   
    57    27    39 1   
    58    28    29 1   
    59    28    30 1   
@<TRIPOS>SUBSTRUCTURE
     1 30E         1 TEMP              0 ****  ****    0 ROOT
