@<TRIPOS>MOLECULE
30G
   24    26     1     0     0
SMALL
bcc


@<TRIPOS>ATOM
      1 C9           0.0000     0.0000     0.0000 ca         1 30G      -0.098000
      2 C13          1.3830     0.0000     0.0000 ca         1 30G      -0.092000
      3 C4          -0.6900     0.0090     1.1990 ca         1 30G      -0.123000
      4 C8           2.0810     0.0000     1.1930 ca         1 30G      -0.105000
      5 C1           0.0050     0.0200     2.3970 ca         1 30G      -0.048400
      6 C3           1.3980    -0.0020     2.4010 ca         1 30G       0.118100
      7 C5           0.0280     0.0180     4.7920 c2         1 30G       0.398200
      8 C12         -2.6710    -0.5970     4.8480 c          1 30G       0.568500
      9 C10          1.4920     0.3820     4.7770 c3         1 30G       0.211100
     10 C6          -2.1510     0.1270     3.6310 c3         1 30G       0.087800
     11 N14         -1.8820    -0.7220     5.9350 ns         1 30G       0.072100
     12 N2          -0.6910     0.0560     3.6120 nh         1 30G      -0.264000
     13 N11         -0.5430    -0.3250     5.8980 n2         1 30G      -0.605300
     14 O15         -3.7950    -1.0540     4.8540 o          1 30G      -0.655500
     15 O7           2.0990    -0.0250     3.5590 os         1 30G      -0.303900
     16 H1          -0.5420     0.0000    -0.9380 ha         1 30G       0.108000
     17 H2           1.9220    -0.0070    -0.9400 ha         1 30G       0.107000
     18 H3          -1.7730     0.0090     1.2000 ha         1 30G       0.118000
     19 H4           3.1640     0.0000     1.1850 ha         1 30G       0.118000
     20 H6           1.5800     1.4590     4.8620 h1         1 30G       0.034700
     21 H5           1.9830    -0.1300     5.5950 h1         1 30G       0.034700
     22 H7          -2.5360    -0.3600     2.7430 h1         1 30G       0.053200
     23 H8          -2.4500     1.1670     3.6890 h1         1 30G       0.053200
     24 H9          -2.2610    -1.1040     6.7790 hn         1 30G       0.209500
@<TRIPOS>BOND
     1     1     2 ar  
     2     1     3 ar  
     3     1    16 1   
     4     2     4 ar  
     5     2    17 1   
     6     3     5 ar  
     7     3    18 1   
     8     4     6 ar  
     9     4    19 1   
    10     5     6 ar  
    11     5    12 1   
    12     6    15 1   
    13     7     9 1   
    14     7    12 1   
    15     7    13 2   
    16     8    10 1   
    17     8    11 1   
    18     8    14 2   
    19     9    15 1   
    20     9    20 1   
    21     9    21 1   
    22    10    12 1   
    23    10    22 1   
    24    10    23 1   
    25    11    13 1   
    26    11    24 1   
@<TRIPOS>SUBSTRUCTURE
     1 30G         1 TEMP              0 ****  ****    0 ROOT
