@<TRIPOS>MOLECULE
30H
   43    44     1     0     0
SMALL
bcc


@<TRIPOS>ATOM
      1 O4           0.0000     0.0000     0.0000 o          1 30H      -0.587100
      2 C6           3.0830     1.0450     1.2480 c3         1 30H      -0.034100
      3 C11          0.4610     1.6640     2.4900 c3         1 30H       0.293100
      4 C12         -0.5730     1.8340     1.4080 ca         1 30H      -0.224600
      5 C13         -0.2460     2.4650     0.2160 ca         1 30H      -0.061000
      6 C14         -1.2280     2.5930    -0.7540 ca         1 30H      -0.214300
      7 C15         -2.4910     2.0920    -0.5040 ca         1 30H       0.414200
      8 C17         -1.8580     1.3580     1.5860 ca         1 30H       0.436200
      9 C18          1.8580    -0.6770     4.8320 ca         1 30H      -0.174500
     10 C19          3.0290    -1.4090     4.7840 ca         1 30H       0.024000
     11 C20          3.9560    -1.3010     5.8040 ca         1 30H      -0.149300
     12 C1           1.2130     0.0000     0.0000 c          1 30H       0.546100
     13 C2           1.9670     0.0000     1.3050 c3         1 30H       0.142500
     14 N3           1.8860     0.0010    -1.1680 ns         1 30H      -0.063400
     15 O5           1.1770     0.0010    -2.3930 oh         1 30H      -0.435100
     16 N7           1.0490     0.3250     2.3990 n3         1 30H      -0.495500
     17 S8           0.6750    -0.8210     3.5340 sy         1 30H       1.055200
     18 O9           0.9050    -2.0830     2.9200 o          1 30H      -0.579800
     19 O10         -0.5780    -0.4440     4.0880 o          1 30H      -0.579800
     20 N16         -2.7660     1.4980     0.6410 nb         1 30H      -0.581000
     21 C21          3.7080    -0.4570     6.8740 ca         1 30H       0.154900
     22 C22          2.5350     0.2760     6.9220 ca         1 30H      -0.158000
     23 C23          1.6110     0.1650     5.9000 ca         1 30H       0.023000
     24 F24          4.6130    -0.3500     7.8730 f          1 30H      -0.123900
     25 C25          5.2310    -2.1000     5.7510 c3         1 30H       0.070200
     26 H1           2.9920     1.6210     0.3350 hc         1 30H       0.017033
     27 H2           3.0020     1.7070     2.1020 hc         1 30H       0.017033
     28 H3           4.0450     0.5480     1.2660 hc         1 30H       0.017033
     29 H4           1.2390     2.4090     2.3660 h1         1 30H       0.024200
     30 H5          -0.0070     1.7880     3.4590 h1         1 30H       0.024200
     31 H6           0.7540     2.8480     0.0480 ha         1 30H       0.095000
     32 H7          -1.0070     3.0800    -1.6960 ha         1 30H       0.106000
     33 H8          -3.2640     2.1880    -1.2560 h4         1 30H      -0.027900
     34 H9          -2.1220     0.8640     2.5140 h4         1 30H       0.000100
     35 H10          3.2210    -2.0680     3.9460 ha         1 30H       0.126000
     36 H11          2.3980    -0.9800     1.4730 h1         1 30H       0.063700
     37 H12          2.8860    -0.0490    -1.1690 hn         1 30H       0.157500
     38 H13          1.7050    -0.4030    -3.0620 ho         1 30H       0.390000
     39 H14          2.3420     0.9350     7.7590 ha         1 30H       0.126000
     40 H15          0.6930     0.7390     5.9370 ha         1 30H       0.126000
     41 H16          6.0550    -1.4480     5.4850 hc         1 30H       0.014033
     42 H17          5.1360    -2.8830     5.0090 hc         1 30H       0.014033
     43 H18          5.4200    -2.5430     6.7210 hc         1 30H       0.014033
@<TRIPOS>BOND
     1     1    12 2   
     2     2    13 1   
     3     2    26 1   
     4     2    27 1   
     5     2    28 1   
     6     3     4 1   
     7     3    16 1   
     8     3    29 1   
     9     3    30 1   
    10     4     5 ar  
    11     4     8 ar  
    12     5     6 ar  
    13     5    31 1   
    14     6     7 ar  
    15     6    32 1   
    16     7    20 ar  
    17     7    33 1   
    18     8    20 ar  
    19     8    34 1   
    20     9    10 ar  
    21     9    17 1   
    22     9    23 ar  
    23    10    11 ar  
    24    10    35 1   
    25    11    21 ar  
    26    11    25 1   
    27    12    13 1   
    28    12    14 1   
    29    13    16 1   
    30    13    36 1   
    31    14    15 1   
    32    14    37 1   
    33    15    38 1   
    34    16    17 1   
    35    17    18 2   
    36    17    19 2   
    37    21    22 ar  
    38    21    24 1   
    39    22    23 ar  
    40    22    39 1   
    41    23    40 1   
    42    25    41 1   
    43    25    42 1   
    44    25    43 1   
@<TRIPOS>SUBSTRUCTURE
     1 30H         1 TEMP              0 ****  ****    0 ROOT
