@<TRIPOS>MOLECULE
molecule
   52    54     1     0     0
SMALL
bcc


@<TRIPOS>ATOM
      1 C10          0.0000     0.0000     0.0000 c3         1 30I      -0.080400
      2 O2          -0.3670     0.8250     6.8630 os         1 30I      -0.404100
      3 O1           7.1390     3.5190     1.2270 o          1 30I      -0.474100
      4 N3           6.4010     4.1720     3.2180 ns         1 30I      -0.471400
      5 C1           7.4740     5.0240     3.3820 c2         1 30I       0.519800
      6 N2           8.3820     5.1140     2.4530 n2         1 30I      -0.685100
      7 N1           7.5860     5.7750     4.5270 nz         1 30I      -0.808600
      8 C3           5.1450     2.5270     1.9190 ca         1 30I       0.184500
      9 N7           4.2730     2.3550     2.9120 nb         1 30I      -0.660000
     10 C12          3.2440     1.5390     2.7530 cp         1 30I       0.376500
     11 C13          2.2740     1.3470     3.8580 cp         1 30I      -0.464100
     12 C14          0.9000     1.3010     3.6040 ca         1 30I       0.531700
     13 C16          2.7100     1.2020     5.1780 ca         1 30I       0.531700
     14 N9           1.8130     1.0330     6.1340 nb         1 30I      -0.779500
     15 C15          0.5190     1.0000     5.8540 ca         1 30I       0.926300
     16 N8           0.0670     1.1280     4.6160 nb         1 30I      -0.779500
     17 C17         -1.7520     0.7960     6.5110 c3         1 30I       0.137700
     18 C5           3.0700     0.8520     1.5340 ca         1 30I       0.566900
     19 N5           3.9370     1.0230     0.5470 nb         1 30I      -0.717000
     20 C4           4.9670     1.8460     0.7020 ca         1 30I       0.668900
     21 N4           5.8670     2.0300    -0.3290 nv         1 30I      -1.067500
     22 N6           1.9940     0.0000     1.3700 nh         1 30I      -0.724300
     23 C11          1.5400     0.0000     0.0000 c3         1 30I       0.171300
     24 C9          -0.5620    -1.3310     0.2030 c3         1 30I      -0.080900
     25 C8          -0.1500    -1.9230     1.5700 c3         1 30I      -0.080900
     26 C7           1.2700    -2.4140     1.4770 c3         1 30I      -0.080400
     27 C6           2.3010    -1.3490     1.8940 c3         1 30I       0.171300
     28 H1          -0.3480     0.3830    -0.9520 hc         1 30I       0.051950
     29 H2          -0.3480     0.6500     0.7940 hc         1 30I       0.051950
     30 H3           5.6880     4.1250     3.9190 hn         1 30I       0.357500
     31 H4           9.1620     5.7310     2.5720 hn         1 30I       0.435400
     32 H5           6.6770     5.9300     4.9150 hn         1 30I       0.467467
     33 H6           8.0100     6.6550     4.3090 hn         1 30I       0.467467
     34 H7           0.5240     1.4050     2.5940 h4         1 30I       0.044100
     35 H8           3.7670     1.2280     5.4150 h4         1 30I       0.044100
     36 H9          -2.0200     1.7240     6.0220 h1         1 30I       0.056367
     37 H10         -2.3490     0.6730     7.4060 h1         1 30I       0.056367
     38 H11         -1.9360    -0.0330     5.8380 h1         1 30I       0.056367
     39 H12          6.6590     1.4240    -0.4150 hn         1 30I       0.456300
     40 H13          5.7000     2.7350    -1.0190 hn         1 30I       0.456300
     41 H14          1.9040    -0.8870    -0.5040 h1         1 30I       0.051950
     42 H15          1.9040     0.8870    -0.5040 h1         1 30I       0.051950
     43 H16         -0.2100    -1.9860    -0.5850 hc         1 30I       0.050200
     44 H17         -1.6430    -1.2670     0.1600 hc         1 30I       0.050200
     45 H18         -0.2190    -1.1570     2.3320 hc         1 30I       0.050200
     46 H19         -0.8030    -2.7510     1.8180 hc         1 30I       0.050200
     47 H20          1.3820    -3.2760     2.1230 hc         1 30I       0.051950
     48 H21          1.4700    -2.7090     0.4540 hc         1 30I       0.051950
     49 H22          2.3310    -1.3010     2.9760 h1         1 30I       0.051950
     50 H23          3.2760    -1.6490     1.5270 h1         1 30I       0.051950
     51 H131         8.1640     5.2930     5.1870 hn         1 30I       0.467467
     52 C2           6.2910     3.4350     2.0950 c          1 30I       0.587600
@<TRIPOS>BOND
     1    21    20 1   
     2     3    52 2   
     3     6     5 2   
     4    20     8 ar  
     5    20    19 ar  
     6    52     8 1   
     7    52     4 1   
     8     5     4 1   
     9     5     7 1   
    10     8     9 ar  
    11    19    18 ar  
    12    23    22 1   
    13    23     1 1   
    14    18    22 1   
    15    18    10 ar  
    16     9    10 ar  
    17    22    27 1   
    18    10    11 1   
    19     1    24 1   
    20    24    25 1   
    21    26    27 1   
    22    26    25 1   
    23    11    13 ar  
    24    11    12 ar  
    25    13    14 ar  
    26    12    16 ar  
    27    14    15 ar  
    28    16    15 ar  
    29    15     2 1   
    30     2    17 1   
    31     1    28 1   
    32     1    29 1   
    33     4    30 1   
    34     6    31 1   
    35     7    32 1   
    36     7    33 1   
    37    12    34 1   
    38    13    35 1   
    39    17    36 1   
    40    17    37 1   
    41    17    38 1   
    42    21    39 1   
    43    21    40 1   
    44    23    41 1   
    45    23    42 1   
    46    24    43 1   
    47    24    44 1   
    48    25    45 1   
    49    25    46 1   
    50    26    47 1   
    51    26    48 1   
    52    27    49 1   
    53    27    50 1   
    54    51     7 1   
@<TRIPOS>SUBSTRUCTURE
     1 30I         1 TEMP              0 ****  ****    0 ROOT
