@<TRIPOS>MOLECULE
30I
   52    54     1     0     0
SMALL
bcc


@<TRIPOS>ATOM
      1 C10          0.0000     0.0000     0.0000 c3         1 30I      -0.029400
      2 O2          -0.3670     0.8250     6.8630 os         1 30I      -0.400100
      3 O1           7.1390     3.5190     1.2270 o          1 30I      -0.603100
      4 N3           6.4010     4.1720     3.2180 ns         1 30I      -0.065400
      5 C1           7.4740     5.0240     3.3820 c2         1 30I       0.050800
      6 N2           8.3820     5.1140     2.4530 n2         1 30I      -0.580100
      7 N1           7.5860     5.7750     4.5270 nz         1 30I       0.188400
      8 C3           5.1450     2.5270     1.9190 ca         1 30I       0.110500
      9 N7           4.2730     2.3550     2.9120 nb         1 30I      -0.534000
     10 C12          3.2440     1.5390     2.7530 cp         1 30I       0.347500
     11 C13          2.2740     1.3470     3.8580 cp         1 30I      -0.474100
     12 C14          0.9000     1.3010     3.6040 ca         1 30I       0.511200
     13 C16          2.7100     1.2020     5.1780 ca         1 30I       0.511200
     14 N9           1.8130     1.0330     6.1340 nb         1 30I      -0.670000
     15 C15          0.5190     1.0000     5.8540 ca         1 30I       0.856300
     16 N8           0.0670     1.1280     4.6160 nb         1 30I      -0.670000
     17 C17         -1.7520     0.7960     6.5110 c3         1 30I       0.255700
     18 C5           3.0700     0.8520     1.5340 ca         1 30I       0.455900
     19 N5           3.9370     1.0230     0.5470 nb         1 30I      -0.602000
     20 C4           4.9670     1.8460     0.7020 ca         1 30I       0.511900
     21 N4           5.8670     2.0300    -0.3290 nv         1 30I      -0.641500
     22 N6           1.9940     0.0000     1.3700 nh         1 30I      -0.489300
     23 C11          1.5400     0.0000     0.0000 c3         1 30I       0.143800
     24 C9          -0.5620    -1.3310     0.2030 c3         1 30I      -0.029900
     25 C8          -0.1500    -1.9230     1.5700 c3         1 30I      -0.029900
     26 C7           1.2700    -2.4140     1.4770 c3         1 30I      -0.029400
     27 C6           2.3010    -1.3490     1.8940 c3         1 30I       0.143800
     28 H1          -0.3480     0.6500     0.7940 hc         1 30I       0.024450
     29 H2          -0.3480     0.3830    -0.9520 hc         1 30I       0.024450
     30 H3           5.6810     4.1350     3.9130 hn         1 30I       0.203500
     31 H4           8.3030     4.5670     1.6190 hn         1 30I       0.456400
     32 H5           7.6190     5.1690     5.3230 hn         1 30I       0.222133
     33 H6           6.7970     6.3850     4.6050 hn         1 30I       0.222133
     34 H7           0.5240     1.4050     2.5940 h4         1 30I      -0.004400
     35 H8           3.7670     1.2280     5.4150 h4         1 30I      -0.004400
     36 H9          -2.3490     0.6670     7.4060 h1         1 30I       0.007367
     37 H10         -2.0210     1.7270     6.0280 h1         1 30I       0.007367
     38 H11         -1.9350    -0.0290     5.8330 h1         1 30I       0.007367
     39 H12          5.7270     2.7680    -0.9900 hn         1 30I       0.297300
     40 H13          6.6280     1.3900    -0.4480 hn         1 30I       0.297300
     41 H14          1.9040     0.8870    -0.5040 h1         1 30I       0.024200
     42 H15          1.9040    -0.8870    -0.5040 h1         1 30I       0.024200
     43 H16         -1.6430    -1.2670     0.1600 hc         1 30I       0.023950
     44 H17         -0.2100    -1.9860    -0.5850 hc         1 30I       0.023950
     45 H18         -0.2190    -1.1570     2.3320 hc         1 30I       0.023950
     46 H19         -0.8030    -2.7510     1.8180 hc         1 30I       0.023950
     47 H20          1.3820    -3.2760     2.1230 hc         1 30I       0.024450
     48 H21          1.4700    -2.7090     0.4540 hc         1 30I       0.024450
     49 H22          3.2760    -1.6490     1.5270 h1         1 30I       0.024200
     50 H23          2.3310    -1.3010     2.9760 h1         1 30I       0.024200
     51 H131         8.4230     6.3230     4.4860 hn         1 30I       0.222133
     52 C2           6.2910     3.4350     2.0950 c          1 30I       0.537600
@<TRIPOS>BOND
     1     1    23 1   
     2     1    24 1   
     3     1    28 1   
     4     1    29 1   
     5     2    15 1   
     6     2    17 1   
     7     3    52 2   
     8     4     5 1   
     9     4    30 1   
    10     4    52 1   
    11     5     6 2   
    12     5     7 1   
    13     6    31 1   
    14     7    32 1   
    15     7    33 1   
    16     7    51 1   
    17     8     9 ar  
    18     8    20 ar  
    19     8    52 1   
    20     9    10 ar  
    21    10    11 1   
    22    10    18 ar  
    23    11    12 ar  
    24    11    13 ar  
    25    12    16 ar  
    26    12    34 1   
    27    13    14 ar  
    28    13    35 1   
    29    14    15 ar  
    30    15    16 ar  
    31    17    36 1   
    32    17    37 1   
    33    17    38 1   
    34    18    19 ar  
    35    18    22 1   
    36    19    20 ar  
    37    20    21 1   
    38    21    39 1   
    39    21    40 1   
    40    22    23 1   
    41    22    27 1   
    42    23    41 1   
    43    23    42 1   
    44    24    25 1   
    45    24    43 1   
    46    24    44 1   
    47    25    26 1   
    48    25    45 1   
    49    25    46 1   
    50    26    27 1   
    51    26    47 1   
    52    26    48 1   
    53    27    49 1   
    54    27    50 1   
@<TRIPOS>SUBSTRUCTURE
     1 30I         1 TEMP              0 ****  ****    0 ROOT
