@<TRIPOS>MOLECULE
molecule
   56    60     1     0     0
SMALL
bcc


@<TRIPOS>ATOM
      1 C2           0.0000     0.0000     0.0000 ca         1 30J       0.032400
      2 C3           1.3650     0.0000     0.0000 ca         1 30J      -0.082000
      3 C42          7.4520    -0.0020    -2.4630 ca         1 30J       0.637200
      4 C44          8.0790    -1.0610    -4.4160 ca         1 30J       0.485200
      5 C46          8.9570    -0.0220    -4.7310 ca         1 30J      -0.182300
      6 C47          9.0730     1.0640    -3.8510 ca         1 30J      -0.036000
      7 C49          8.3080     1.0680    -2.7150 ca         1 30J      -0.273300
      8 C51          9.7280    -0.0650    -5.9380 cg         1 30J       0.242800
      9 C53          4.8680    -1.2370    -2.4100 c3         1 30J      -0.103100
     10 C11         -0.0800     0.0060     2.3980 ca         1 30J      -0.104000
     11 C13         -0.7180     0.0070     1.1930 ca         1 30J      -0.109000
     12 C18          1.0980     1.4210     5.4070 ca         1 30J      -0.088300
     13 C19         -0.0640     2.0740     5.0410 ca         1 30J      -0.117500
     14 C21         -0.2820     3.3780     5.4470 ca         1 30J      -0.126500
     15 C23          0.6630     4.0290     6.2180 ca         1 30J      -0.125000
     16 C25          1.8250     3.3760     6.5830 ca         1 30J      -0.126500
     17 C27          2.0410     2.0710     6.1820 ca         1 30J      -0.117500
     18 C30          5.0710    -1.2110     0.0810 c3         1 30J       0.164800
     19 Cl1         -0.8540     0.0010    -1.5120 cl         1 30J      -0.099400
     20 C5           2.0520     0.0000     1.2180 ca         1 30J      -0.111300
     21 C6           3.4630    -0.0020     1.3020 ca         1 30J       0.554200
     22 N7           4.0290    -0.0020     2.4960 nb         1 30J      -0.356000
     23 N8           3.3620    -0.0010     3.5890 nb         1 30J      -0.317000
     24 C9           2.0500    -0.0010     3.6380 ca         1 30J       0.391600
     25 C10          1.3200    -0.0000     2.4350 ca         1 30J      -0.132300
     26 N29          4.2380    -0.0020     0.1540 nh         1 30J      -0.725300
     27 C33          5.8490    -1.2130    -1.2360 c3         1 30J       0.184500
     28 N35          6.6780    -0.0010    -1.3140 nh         1 30J      -0.696300
     29 C36          5.8450     1.2080    -1.2410 c3         1 30J       0.170800
     30 C39          5.0660     1.2090     0.0760 c3         1 30J       0.171800
     31 N43          7.3660    -1.0200    -3.3090 nb         1 30J      -0.738000
     32 N52         10.3560    -0.1000    -6.8840 n1         1 30J      -0.362800
     33 H1           1.9070    -0.0050    -0.9380 ha         1 30J       0.170000
     34 H2           7.9780    -1.9060    -5.0860 h4         1 30J       0.035100
     35 H3           9.7490     1.8780    -4.0800 ha         1 30J       0.150000
     36 H4           8.3650     1.8940    -2.0160 ha         1 30J       0.152000
     37 H5           5.0600    -2.1090    -3.0230 hc         1 30J       0.043367
     38 H6           4.9960    -0.3410    -3.0060 hc         1 30J       0.043367
     39 H7           3.8540    -1.2770    -2.0310 hc         1 30J       0.043367
     40 H8          -0.6550     0.0120     3.3160 ha         1 30J       0.149000
     41 H9          -1.8020     0.0060     1.1730 ha         1 30J       0.148000
     42 H10          0.4170    -0.5650     5.0600 hc         1 30J       0.073700
     43 H11          2.1020    -0.4470     5.5860 hc         1 30J       0.073700
     44 H12         -0.8030     1.5650     4.4340 ha         1 30J       0.133000
     45 H13         -1.1930     3.8890     5.1600 ha         1 30J       0.131500
     46 H14          0.4920     5.0510     6.5350 ha         1 30J       0.131000
     47 H15          2.5660     3.8860     7.1880 ha         1 30J       0.131500
     48 H16          2.9520     1.5610     6.4680 ha         1 30J       0.133000
     49 H17          5.6470    -1.2950     0.9940 h1         1 30J       0.060200
     50 H18          4.4250    -2.0760    -0.0150 h1         1 30J       0.060200
     51 H19          6.4870    -2.0870    -1.2750 h1         1 30J       0.088700
     52 H20          5.2680     1.2920    -2.1550 h1         1 30J       0.054200
     53 H21          6.4900     2.0720    -1.1460 h1         1 30J       0.054200
     54 H22          5.6710     1.2780     0.9720 h1         1 30J       0.060700
     55 H23          4.4170     2.0740     0.0150 h1         1 30J       0.060700
     56 C15          1.3360     0.0010     4.9650 c3         1 30J      -0.088400
@<TRIPOS>BOND
     1    56    12 1
     2    56    24 1
     3    12    13 ar
     4    12    17 ar
     5    13    14 ar
     6    17    16 ar
     7    14    15 ar
     8    23    24 ar
     9    23    22 ar
    10    15    16 ar
    11    24    25 ar
    12    22    21 ar
    13    25    10 ar
    14    25    20 ar
    15    21    20 ar
    16    21    26 1
    17    30    26 1
    18    30    29 1
    19    10    11 ar
    20    20     2 ar
    21    26    18 1
    22    29    28 1
    23    11     1 ar
    24    31     4 ar
    25    31     3 ar
    26     2     1 ar
    27     4     5 ar
    28    18    27 1
    29    28     3 1
    30    28    27 1
    31     1    19 1
    32     3     7 ar
    33    27     9 1
    34     5     8 1
    35     5     6 ar
    36     8    32 3
    37     7     6 ar
    38     2    33 1
    39     4    34 1
    40     6    35 1
    41     7    36 1
    42     9    37 1
    43     9    38 1
    44     9    39 1
    45    10    40 1
    46    11    41 1
    47    56    42 1
    48    56    43 1
    49    13    44 1
    50    14    45 1
    51    15    46 1
    52    16    47 1
    53    17    48 1
    54    18    49 1
    55    18    50 1
    56    27    51 1
    57    29    52 1
    58    29    53 1
    59    30    54 1
    60    30    55 1
@<TRIPOS>SUBSTRUCTURE
     1 30J         1 TEMP              0 ****  ****    0 ROOT
