@<TRIPOS>MOLECULE
30J
   56    60     1     0     0
SMALL
bcc


@<TRIPOS>ATOM
      1 C2           0.0000     0.0000     0.0000 ca         1 30J      -0.030600
      2 C3           1.3650     0.0000     0.0000 ca         1 30J      -0.062000
      3 C42          7.4520    -0.0020    -2.4630 ca         1 30J       0.514200
      4 C44          8.0790    -1.0610    -4.4160 ca         1 30J       0.466200
      5 C46          8.9570    -0.0220    -4.7310 ca         1 30J      -0.132300
      6 C47          9.0730     1.0640    -3.8510 ca         1 30J      -0.012000
      7 C49          8.3080     1.0680    -2.7150 ca         1 30J      -0.249300
      8 C51          9.7280    -0.0650    -5.9380 cg         1 30J       0.237800
      9 C53          4.8680    -1.2370    -2.4100 c3         1 30J      -0.031100
     10 C11         -0.0800     0.0060     2.3980 ca         1 30J      -0.080000
     11 C13         -0.7180     0.0070     1.1930 ca         1 30J      -0.083000
     12 C18          1.0980     1.4210     5.4070 ca         1 30J      -0.094300
     13 C19         -0.0640     2.0740     5.0410 ca         1 30J      -0.096000
     14 C21         -0.2820     3.3780     5.4470 ca         1 30J      -0.098000
     15 C23          0.6630     4.0290     6.2180 ca         1 30J      -0.099000
     16 C25          1.8250     3.3760     6.5830 ca         1 30J      -0.098000
     17 C27          2.0410     2.0710     6.1820 ca         1 30J      -0.096000
     18 C30          5.0710    -1.2110     0.0810 c3         1 30J       0.143800
     19 Cl1         -0.8540     0.0010    -1.5120 cl         1 30J      -0.014400
     20 C5           2.0520     0.0000     1.2180 ca         1 30J      -0.112300
     21 C6           3.4630    -0.0020     1.3020 ca         1 30J       0.462200
     22 N7           4.0290    -0.0020     2.4960 nb         1 30J      -0.314000
     23 N8           3.3620    -0.0010     3.5890 nb         1 30J      -0.278000
     24 C9           2.0500    -0.0010     3.6380 ca         1 30J       0.369600
     25 C10          1.3200    -0.0000     2.4350 ca         1 30J      -0.131300
     26 N29          4.2380    -0.0020     0.1540 nh         1 30J      -0.517300
     27 C33          5.8490    -1.2130    -1.2360 c3         1 30J       0.130500
     28 N35          6.6780    -0.0010    -1.3140 nh         1 30J      -0.465300
     29 C36          5.8450     1.2080    -1.2410 c3         1 30J       0.139800
     30 C39          5.0660     1.2090     0.0760 c3         1 30J       0.153800
     31 N43          7.3660    -1.0200    -3.3090 nb         1 30J      -0.628000
     32 N52         10.3560    -0.1000    -6.8840 n1         1 30J      -0.379800
     33 H1           1.9070    -0.0050    -0.9380 ha         1 30J       0.139000
     34 H2           7.9780    -1.9060    -5.0860 h4         1 30J      -0.011900
     35 H3           9.7490     1.8780    -4.0800 ha         1 30J       0.117000
     36 H4           8.3650     1.8940    -2.0160 ha         1 30J       0.130000
     37 H5           5.0600    -2.1090    -3.0230 hc         1 30J       0.017367
     38 H6           4.9960    -0.3410    -3.0060 hc         1 30J       0.017367
     39 H7           3.8540    -1.2770    -2.0310 hc         1 30J       0.017367
     40 H8          -0.6550     0.0120     3.3160 ha         1 30J       0.125000
     41 H9          -1.8020     0.0060     1.1730 ha         1 30J       0.117000
     42 H10          0.4170    -0.5650     5.0600 hc         1 30J       0.038200
     43 H11          2.1020    -0.4470     5.5860 hc         1 30J       0.038200
     44 H12         -0.8030     1.5650     4.4340 ha         1 30J       0.110500
     45 H13         -1.1930     3.8890     5.1600 ha         1 30J       0.103500
     46 H14          0.4920     5.0510     6.5350 ha         1 30J       0.103000
     47 H15          2.5660     3.8860     7.1880 ha         1 30J       0.103500
     48 H16          2.9520     1.5610     6.4680 ha         1 30J       0.110500
     49 H17          5.6470    -1.2950     0.9940 h1         1 30J       0.031200
     50 H18          4.4250    -2.0760    -0.0150 h1         1 30J       0.031200
     51 H19          6.4870    -2.0870    -1.2750 h1         1 30J       0.056700
     52 H20          5.2680     1.2920    -2.1550 h1         1 30J       0.027200
     53 H21          6.4900     2.0720    -1.1460 h1         1 30J       0.027200
     54 H22          5.6710     1.2780     0.9720 h1         1 30J       0.029700
     55 H23          4.4170     2.0740     0.0150 h1         1 30J       0.029700
     56 C15          1.3360     0.0010     4.9650 c3         1 30J      -0.022400
@<TRIPOS>BOND
     1     1     2 ar  
     2     1    11 ar  
     3     1    19 1   
     4     2    20 ar  
     5     2    33 1   
     6     3     7 ar  
     7     3    28 1   
     8     3    31 ar  
     9     4     5 ar  
    10     4    31 ar  
    11     4    34 1   
    12     5     6 ar  
    13     5     8 1   
    14     6     7 ar  
    15     6    35 1   
    16     7    36 1   
    17     8    32 3   
    18     9    27 1   
    19     9    37 1   
    20     9    38 1   
    21     9    39 1   
    22    10    11 ar  
    23    10    25 ar  
    24    10    40 1   
    25    11    41 1   
    26    12    13 ar  
    27    12    17 ar  
    28    12    56 1   
    29    13    14 ar  
    30    13    44 1   
    31    14    15 ar  
    32    14    45 1   
    33    15    16 ar  
    34    15    46 1   
    35    16    17 ar  
    36    16    47 1   
    37    17    48 1   
    38    18    26 1   
    39    18    27 1   
    40    18    49 1   
    41    18    50 1   
    42    20    21 ar  
    43    20    25 ar  
    44    21    22 ar  
    45    21    26 1   
    46    22    23 ar  
    47    23    24 ar  
    48    24    25 ar  
    49    24    56 1   
    50    26    30 1   
    51    27    28 1   
    52    27    51 1   
    53    28    29 1   
    54    29    30 1   
    55    29    52 1   
    56    29    53 1   
    57    30    54 1   
    58    30    55 1   
    59    42    56 1   
    60    43    56 1   
@<TRIPOS>SUBSTRUCTURE
     1 30J         1 TEMP              0 ****  ****    0 ROOT
