@<TRIPOS>MOLECULE
molecule
   68    73     1     0     0
SMALL
bcc


@<TRIPOS>ATOM
      1 O1           0.0000     0.0000     0.0000 o          1 30K      -0.531500
      2 C11          1.2180     0.0000     0.0000 c          1 30K       0.688700
      3 N1           2.0080     0.0000     1.0860 ns         1 30K      -0.464100
      4 C8           3.3540    -0.0010     0.7330 ca         1 30K       0.015600
      5 C9           4.5120     0.0010     1.5030 ca         1 30K      -0.120000
      6 C7           3.4630    -0.0020    -0.6650 ca         1 30K      -0.082800
      7 C6           4.7150    -0.0030    -1.2740 ca         1 30K      -0.154000
      8 C5           5.8590    -0.0030    -0.4910 ca         1 30K       0.175600
      9 N4           7.1220    -0.0040    -1.0950 nu         1 30K      -0.826600
     10 C23          8.3300    -0.0050    -0.2670 c3         1 30K       0.242500
     11 C24          9.4910    -0.6160    -1.0560 c3         1 30K      -0.095400
     12 C25         10.7640    -0.5580    -0.2080 c3         1 30K       0.164800
     13 N5          11.0630     0.8390     0.1340 n3         1 30K      -0.732600
     14 C29         12.3520     0.9470     0.8280 c3         1 30K       0.160800
     15 C30         12.7470     2.4200     0.9460 c3         1 30K      -0.094100
     16 C26          9.9830     1.4320     0.9320 c3         1 30K       0.164800
     17 C27          8.6860     1.4340     0.1190 c3         1 30K      -0.095400
     18 C4           5.7510     0.0010     0.8960 ca         1 30K      -0.169000
     19 C10          2.0830    -0.0090    -1.1910 cc         1 30K      -0.082400
     20 C2           1.6860    -0.0170    -2.5210 cf         1 30K      -0.013800
     21 C1           2.7010    -0.0250    -3.5940 ca         1 30K      -0.076800
     22 C12          2.8130    -1.1250    -4.4480 ca         1 30K      -0.108000
     23 C13          3.7620    -1.1250    -5.4470 ca         1 30K      -0.136000
     24 C14          4.6050    -0.0400    -5.6050 ca         1 30K      -0.122000
     25 C15          4.5020     1.0540    -4.7630 ca         1 30K      -0.136000
     26 C16          3.5520     1.0720    -3.7630 ca         1 30K      -0.108000
     27 C3           0.2540    -0.0180    -2.8630 cd         1 30K       0.447100
     28 N2          -0.7300    -0.0110    -1.9950 nc         1 30K      -0.518100
     29 C17         -1.9080    -0.0140    -2.6440 ca         1 30K       0.119400
     30 C19         -3.2420    -0.0100    -2.2120 ca         1 30K      -0.100000
     31 C18         -1.6290    -0.0230    -4.0240 ca         1 30K      -0.120200
     32 N3          -0.2530    -0.0200    -4.1370 na         1 30K      -0.259300
     33 C22         -2.6690    -0.0290    -4.9440 ca         1 30K      -0.099000
     34 C21         -3.9740    -0.0250    -4.5040 ca         1 30K      -0.190000
     35 C20         -4.2610    -0.0140    -3.1410 ca         1 30K       0.113100
     36 O2          -5.5550    -0.0100    -2.7230 os         1 30K      -0.327900
     37 C28         -6.5630    -0.0150    -3.7350 c3         1 30K       0.130700
     38 H1           1.6720     0.0000     2.0290 hn         1 30K       0.338500
     39 H9           4.4410     0.0040     2.5840 ha         1 30K       0.131000
     40 H4           6.6480     0.0010     1.5040 ha         1 30K       0.137000
     41 H6           4.7940    -0.1140    -2.3490 ha         1 30K       0.146000
     42 HA           7.1990    -0.0220    -2.0930 hn         1 30K       0.438800
     43 H23          8.1590    -0.5870     0.6300 h1         1 30K       0.055700
     44 H241         9.2620    -1.6480    -1.2920 hc         1 30K       0.055700
     45 H242         9.6400    -0.0550    -1.9710 hc         1 30K       0.055700
     46 H271         7.8870     1.8550     0.7160 hc         1 30K       0.055700
     47 H272         8.8250     2.0250    -0.7790 hc         1 30K       0.055700
     48 H251        11.5900    -0.9750    -0.7720 h1         1 30K       0.035950
     49 H252        10.6160    -1.1270     0.7010 h1         1 30K       0.035950
     50 H291        12.2650     0.5160     1.8190 h1         1 30K       0.032200
     51 H292        13.1100     0.4140     0.2680 h1         1 30K       0.032200
     52 H261         9.8400     0.8490     1.8340 h1         1 30K       0.035950
     53 H262        10.2450     2.4500     1.1920 h1         1 30K       0.035950
     54 H301        13.8260     2.5030     0.9850 hc         1 30K       0.040033
     55 H302        12.3740     2.9640     0.0870 hc         1 30K       0.040033
     56 H303        12.3200     2.8370     1.8500 hc         1 30K       0.040033
     57 H12          2.1530    -1.9760    -4.3250 ha         1 30K       0.146000
     58 H16          3.4720     1.9280    -3.1050 ha         1 30K       0.146000
     59 H13          3.8490    -1.9780    -6.1090 ha         1 30K       0.135500
     60 H14          5.3520    -0.0470    -6.3910 ha         1 30K       0.133000
     61 H15          5.1630     1.9020    -4.8950 ha         1 30K       0.135500
     62 H3           0.2680     0.1360    -4.9780 hn         1 30K       0.303700
     63 H19         -3.4710    -0.0010    -1.1540 ha         1 30K       0.162000
     64 H22         -2.4530    -0.0370    -6.0060 ha         1 30K       0.126000
     65 H21         -4.7840    -0.0280    -5.2240 ha         1 30K       0.136000
     66 H281        -6.4550     0.8650    -4.3570 h1         1 30K       0.038700
     67 H282        -6.4580    -0.9040    -4.3460 h1         1 30K       0.038700
     68 H283        -7.5420    -0.0100    -3.2700 h1         1 30K       0.038700
@<TRIPOS>BOND
     1     1     2 2
     2     2     3 1
     3     2    19 1
     4     3     4 1
     5     4     5 ar
     6     4     6 ar
     7     5    18 ar
     8     6     7 ar
     9     6    19 1
    10     7     8 ar
    11     8     9 1
    12     8    18 ar
    13     9    10 1
    14    10    11 1
    15    10    17 1
    16    11    12 1
    17    12    13 1
    18    13    14 1
    19    13    16 1
    20    14    15 1
    21    16    17 1
    22    19    20 2
    23    20    21 1
    24    20    27 1
    25    21    22 ar
    26    21    26 ar
    27    22    23 ar
    28    23    24 ar
    29    24    25 ar
    30    25    26 ar
    31    27    28 2
    32    27    32 1
    33    28    29 1
    34    29    30 ar
    35    29    31 ar
    36    30    35 ar
    37    31    32 1
    38    31    33 ar
    39    33    34 ar
    40    34    35 ar
    41    35    36 1
    42    36    37 1
    43     3    38 1
    44     5    39 1
    45    18    40 1
    46     7    41 1
    47     9    42 1
    48    10    43 1
    49    11    44 1
    50    11    45 1
    51    17    46 1
    52    17    47 1
    53    12    48 1
    54    12    49 1
    55    14    50 1
    56    14    51 1
    57    16    52 1
    58    16    53 1
    59    15    54 1
    60    15    55 1
    61    15    56 1
    62    22    57 1
    63    26    58 1
    64    23    59 1
    65    24    60 1
    66    25    61 1
    67    32    62 1
    68    30    63 1
    69    33    64 1
    70    34    65 1
    71    37    66 1
    72    37    67 1
    73    37    68 1
@<TRIPOS>SUBSTRUCTURE
     1 30K         1 TEMP              0 ****  ****    0 ROOT
