@<TRIPOS>MOLECULE
30L
   37    38     1     0     0
SMALL
bcc


@<TRIPOS>ATOM
      1 N1           0.0000     0.0000     0.0000 ns         1 30L      -0.240900
      2 C3           1.4650     0.0000     0.0000 c3         1 30L       0.116300
      3 C4           1.9680     0.0000     1.4210 ca         1 30L      -0.111300
      4 C5           2.1990    -1.1970     2.0720 ca         1 30L       0.004000
      5 C6           2.6600    -1.1980     3.3750 ca         1 30L      -0.456200
      6 N7           2.9070    -2.4800     4.0720 no         1 30L       1.050200
      7 O8           2.7050    -3.5340     3.4970 o          1 30L      -0.454000
      8 O9           3.3140    -2.4800     5.2210 o          1 30L      -0.454000
      9 C10          2.8910    -0.0010     4.0260 ca         1 30L      -0.016000
     10 C11          2.6610     1.1970     3.3750 ca         1 30L      -0.143000
     11 C12          2.2030     1.1970     2.0700 ca         1 30L      -0.026000
     12 C19         -0.6740    -0.0060    -1.1660 c          1 30L       0.590700
     13 O20         -0.0680    -0.0050    -2.2200 o          1 30L      -0.571100
     14 C21         -2.1490    -0.0120    -1.1650 ca         1 30L      -0.232600
     15 C22         -2.8510    -0.0070     0.0430 ca         1 30L      -0.027000
     16 C24         -4.2270    -0.0130     0.0380 ca         1 30L      -0.224000
     17 C26         -4.9240    -0.0250    -1.1630 ca         1 30L       0.160900
     18 F27         -6.2740    -0.0310    -1.1570 f          1 30L      -0.137900
     19 C28         -4.2390    -0.0290    -2.3660 ca         1 30L      -0.270000
     20 C30         -2.8540    -0.0180    -2.3770 ca         1 30L       0.257100
     21 O31         -2.1830    -0.0180    -3.5570 os         1 30L      -0.201900
     22 C32         -2.9680    -0.0240    -4.7500 c3         1 30L       0.068400
     23 C33         -2.0570    -0.0240    -5.9500 c          1 30L       0.971600
     24 O34         -0.8580    -0.0170    -5.7990 o          1 30L      -0.873800
     25 O36         -2.5770    -0.0280    -7.1880 o          1 30L      -0.873800
     26 H1          -0.5000     0.0040     0.8670 hn         1 30L       0.174500
     27 H2           1.8260     0.8840    -0.5110 h1         1 30L       0.033700
     28 H3           1.8260    -0.8840    -0.5110 h1         1 30L       0.033700
     29 H4           2.0520    -2.1350     1.5490 ha         1 30L       0.142000
     30 H5           3.2520    -0.0020     5.0470 ha         1 30L       0.127000
     31 H6           2.7990     2.1340     3.9010 ha         1 30L       0.113000
     32 H7           2.1520     2.2220     1.7220 ha         1 30L       0.118000
     33 H8          -2.3120     0.0020     0.9830 ha         1 30L       0.091000
     34 H9          -4.7700    -0.0090     0.9760 ha         1 30L       0.111000
     35 H10         -4.7880    -0.0360    -3.3000 ha         1 30L       0.153000
     36 H11         -3.5970     0.8580    -4.7730 h1         1 30L      -0.002300
     37 H12         -3.5900    -0.9110    -4.7690 h1         1 30L      -0.002300
@<TRIPOS>BOND
     1     1     2 1   
     2     1    12 1   
     3     1    26 1   
     4     2     3 1   
     5     2    27 1   
     6     2    28 1   
     7     3     4 ar  
     8     3    11 ar  
     9     4     5 ar  
    10     4    29 1   
    11     5     6 1   
    12     5     9 ar  
    13     6     7 1   
    14     6     8 1   
    15     9    10 ar  
    16     9    30 1   
    17    10    11 ar  
    18    10    31 1   
    19    11    32 1   
    20    12    13 2   
    21    12    14 1   
    22    14    15 ar  
    23    14    20 ar  
    24    15    16 ar  
    25    15    33 1   
    26    16    17 ar  
    27    16    34 1   
    28    17    18 1   
    29    17    19 ar  
    30    19    20 ar  
    31    19    35 1   
    32    20    21 1   
    33    21    22 1   
    34    22    23 1   
    35    22    36 1   
    36    22    37 1   
    37    23    24 1   
    38    23    25 1   
@<TRIPOS>SUBSTRUCTURE
     1 30L         1 TEMP              0 ****  ****    0 ROOT
