@<TRIPOS>MOLECULE
30M
   43    45     1     0     0
SMALL
bcc


@<TRIPOS>ATOM
      1 C2           0.0000     0.0000     0.0000 cc         1 30M      -0.239300
      2 C3           1.5090     0.0000     0.0000 c3         1 30M       0.055800
      3 C4           2.0050     0.0000     1.4450 c3         1 30M       0.061000
      4 C6          -0.0130    -1.2180     2.1580 c          1 30M       0.686700
      5 O20          0.6140    -1.3010    -8.0700 o          1 30M      -0.644100
      6 C19          0.7780    -0.0980    -8.0610 c          1 30M       0.569100
      7 C22          1.1810     0.6150    -9.3260 c3         1 30M      -0.066100
      8 N18          0.6010     0.5980    -6.9220 ns         1 30M      -0.207900
      9 C17          0.2080    -0.0970    -5.6930 c3         1 30M       0.052000
     10 C16          0.0760     0.9180    -4.5550 c3         1 30M      -0.038400
     11 C15         -0.3340     0.1930    -3.2700 c3         1 30M      -0.043400
     12 N1          -0.8590     0.5130    -0.9030 na         1 30M       0.459600
     13 C7          -0.7070    -0.5800     1.0330 cd         1 30M      -0.224400
     14 O21         -0.6020    -1.9320     2.9470 o          1 30M      -0.682500
     15 N5           1.3130    -0.9770     2.2770 ns         1 30M      -0.210900
     16 C8          -2.1130    -0.4000     0.7320 ca         1 30M      -0.031800
     17 C9          -2.1530     0.2910    -0.5060 ca         1 30M      -0.240200
     18 C10         -3.3700     0.6270    -1.0930 ca         1 30M      -0.107000
     19 C11         -4.5200     0.2590    -0.4170 ca         1 30M      -0.087000
     20 C12         -4.4810    -0.4140     0.7910 ca         1 30M      -0.127000
     21 C13         -3.2860    -0.7650     1.3940 ca         1 30M      -0.033000
     22 H1           1.8700    -0.8870    -0.5060 hc         1 30M       0.024200
     23 H2           1.8700     0.8870    -0.5060 hc         1 30M       0.024200
     24 H3           3.0640    -0.2260     1.4500 h1         1 30M       0.012700
     25 H4           1.8510     0.9860     1.8660 h1         1 30M       0.012700
     26 H5           0.4250     1.3450    -9.5860 hc         1 30M       0.022367
     27 H6           2.1290     1.1160    -9.1710 hc         1 30M       0.022367
     28 H7           1.2800    -0.1040   -10.1300 hc         1 30M       0.022367
     29 H8           0.7260     1.5910    -6.9170 hn         1 30M       0.173500
     30 H9          -0.7420    -0.5940    -5.8460 h1         1 30M       0.029200
     31 H10          0.9630    -0.8310    -5.4360 h1         1 30M       0.029200
     32 H11          1.0260     1.4150    -4.4010 hc         1 30M       0.016700
     33 H12         -0.6790     1.6520    -4.8110 hc         1 30M       0.016700
     34 H13         -1.2840    -0.3050    -3.4240 hc         1 30M       0.032200
     35 H14          0.4200    -0.5400    -3.0130 hc         1 30M       0.032200
     36 H15         -1.2230     1.9410    -2.3890 h1         1 30M       0.036700
     37 H16          0.4820     1.7060    -1.9790 h1         1 30M       0.036700
     38 H17          1.8380    -1.4880     2.9590 hn         1 30M       0.181500
     39 H18         -3.4140     1.1540    -2.0390 ha         1 30M       0.104000
     40 H19         -5.4830     0.5100    -0.8460 ha         1 30M       0.097000
     41 H20         -5.4130    -0.6780     1.2760 ha         1 30M       0.101000
     42 H21         -3.2620    -1.2920     2.3400 ha         1 30M       0.129000
     43 C14         -0.4680     1.2070    -2.1320 c3         1 30M      -0.060700
@<TRIPOS>BOND
     1     1     2 1   
     2     1    12 1   
     3     1    13 2   
     4     2     3 1   
     5     2    22 1   
     6     2    23 1   
     7     3    15 1   
     8     3    24 1   
     9     3    25 1   
    10     4    13 1   
    11     4    14 2   
    12     4    15 1   
    13     5     6 2   
    14     6     7 1   
    15     6     8 1   
    16     7    26 1   
    17     7    27 1   
    18     7    28 1   
    19     8     9 1   
    20     8    29 1   
    21     9    10 1   
    22     9    30 1   
    23     9    31 1   
    24    10    11 1   
    25    10    32 1   
    26    10    33 1   
    27    11    34 1   
    28    11    35 1   
    29    11    43 1   
    30    12    17 1   
    31    12    43 1   
    32    13    16 1   
    33    15    38 1   
    34    16    17 ar  
    35    16    21 ar  
    36    17    18 ar  
    37    18    19 ar  
    38    18    39 1   
    39    19    20 ar  
    40    19    40 1   
    41    20    21 ar  
    42    20    41 1   
    43    21    42 1   
    44    36    43 1   
    45    37    43 1   
@<TRIPOS>SUBSTRUCTURE
     1 30M         1 TEMP              0 ****  ****    0 ROOT
