@<TRIPOS>MOLECULE
molecule
   46    47     1     0     0
SMALL
bcc


@<TRIPOS>ATOM
      1 C21          0.0000     0.0000     0.0000 ca         1 30O      -0.076000
      2 C20          1.3830     0.0000     0.0000 ca         1 30O      -0.128500
      3 C22         -0.6910     0.0080     1.1970 ca         1 30O      -0.153200
      4 C23         -0.0010     0.0150     2.3940 ca         1 30O      -0.076000
      5 C24          1.3820     0.0130     2.3950 ca         1 30O      -0.128500
      6 C19          2.0730     0.0000     1.1980 ca         1 30O      -0.078300
      7 C18          3.5800    -0.0010     1.1980 c3         1 30O       0.270100
      8 N6           4.0680    -1.3500     0.8980 n3         1 30O      -0.791500
      9 C1           4.2280    -2.3280     1.9770 c3         1 30O       0.178500
     10 C28          2.8920    -2.5170     2.6970 c3         1 30O      -0.100100
     11 C2           5.2610    -1.8300     2.9550 c          1 30O       0.654100
     12 N4           5.9030    -2.7020     3.7580 ns         1 30O      -0.468400
     13 O5           6.8730    -2.2350     4.6780 oh         1 30O      -0.360100
     14 O3           5.5160    -0.6470     3.0190 o          1 30O      -0.572100
     15 S7           4.4360    -1.7680    -0.6610 sy         1 30O       1.428200
     16 O8           4.3090    -3.1810    -0.7390 o          1 30O      -0.636300
     17 O9           3.7140    -0.8750    -1.4980 o          1 30O      -0.636300
     18 C10          6.1430    -1.4090    -0.9080 ca         1 30O      -0.329500
     19 C15          7.0900    -2.4020    -0.7360 ca         1 30O      -0.011000
     20 C14          8.4290    -2.1220    -0.9290 ca         1 30O      -0.184000
     21 C13          8.8240    -0.8450    -1.2940 ca         1 30O       0.189900
     22 F16         10.1320    -0.5690    -1.4840 f          1 30O      -0.129900
     23 C12          7.8750     0.1490    -1.4660 ca         1 30O      -0.137300
     24 C11          6.5350    -0.1350    -1.2780 ca         1 30O       0.002000
     25 C17          8.3010     1.5380    -1.8640 c3         1 30O      -0.045800
     26 N1          -2.1710     0.0090     1.1960 no         1 30O       0.292200
     27 O1          -2.7810     0.0160     2.2510 o          1 30O      -0.206000
     28 O4          -2.7800     0.0030     0.1400 o          1 30O      -0.206000
     29 H1          -0.5420    -0.0030    -0.9380 ha         1 30O       0.167000
     30 H2           1.9250    -0.0080    -0.9380 ha         1 30O       0.169000
     31 H3          -0.5430     0.0230     3.3320 ha         1 30O       0.167000
     32 H4           1.9230     0.0160     3.3330 ha         1 30O       0.169000
     33 H5           3.9420     0.6900     0.4460 h1         1 30O       0.087200
     34 H6           3.9410     0.3050     2.1730 h1         1 30O       0.087200
     35 H7           4.5510    -3.2750     1.5610 h1         1 30O       0.090700
     36 H8           2.0890    -2.5260     1.9710 hc         1 30O       0.054700
     37 H9           2.9020    -3.4560     3.2360 hc         1 30O       0.054700
     38 H10          2.7400    -1.7020     3.3950 hc         1 30O       0.054700
     39 H11          5.7250    -3.6840     3.6740 hn         1 30O       0.322500
     40 H12          7.1040    -2.9310     5.2710 ho         1 30O       0.402000
     41 H13          6.7820    -3.4000    -0.4500 ha         1 30O       0.152000
     42 H14          9.1710    -2.9000    -0.7940 ha         1 30O       0.152000
     43 H15          5.7930     0.6420    -1.4130 ha         1 30O       0.153000
     44 H16          8.8720     1.9850    -1.0600 hc         1 30O       0.052367
     45 H17          8.9140     1.4860    -2.7560 hc         1 30O       0.052367
     46 H18          7.4240     2.1410    -2.0640 hc         1 30O       0.052367
@<TRIPOS>BOND
     1    27    26 1
     2     4     5 ar
     3     4     3 ar
     4    26     3 1
     5    26    28 1
     6     5     6 ar
     7    17    15 2
     8     3     1 ar
     9    16    15 2
    10    10     9 1
    11    15     8 1
    12    15    18 1
    13     9     8 1
    14     9    11 1
    15     8     7 1
    16     6     7 1
    17     6     2 ar
    18     1     2 ar
    19    11    12 1
    20    11    14 2
    21    12    13 1
    22    18    19 ar
    23    18    24 ar
    24    19    20 ar
    25    24    23 ar
    26    20    21 ar
    27    23    21 ar
    28    23    25 1
    29    21    22 1
    30     1    29 1
    31     2    30 1
    32     4    31 1
    33     5    32 1
    34     7    33 1
    35     7    34 1
    36     9    35 1
    37    10    36 1
    38    10    37 1
    39    10    38 1
    40    12    39 1
    41    13    40 1
    42    19    41 1
    43    20    42 1
    44    24    43 1
    45    25    44 1
    46    25    45 1
    47    25    46 1
@<TRIPOS>SUBSTRUCTURE
     1 30O         1 TEMP              0 ****  ****    0 ROOT
