@<TRIPOS>MOLECULE
30P
   46    47     1     0     0
SMALL
bcc


@<TRIPOS>ATOM
      1 C21          0.0000     0.0000     0.0000 ca         1 30P       0.019600
      2 C20          1.3890     0.0000     0.0000 ca         1 30P      -0.119000
      3 C22         -0.6920    -0.0010     1.2040 ca         1 30P      -0.116000
      4 C23          0.0030    -0.0010     2.3980 ca         1 30P      -0.093000
      5 C24          1.3860    -0.0000     2.3940 ca         1 30P      -0.109000
      6 C19          2.0780     0.0000     1.1970 ca         1 30P      -0.121300
      7 C18          3.5850     0.0010     1.1980 c3         1 30P       0.276100
      8 N6           4.0730     1.3550     1.4720 n3         1 30P      -0.489500
      9 C1           4.2670     2.3000     0.3700 c3         1 30P       0.142500
     10 C28          2.9790     2.4030    -0.4470 c3         1 30P      -0.035100
     11 C2           5.3860     1.8170    -0.5150 c          1 30P       0.548100
     12 N4           6.0430     2.6860    -1.3090 ns         1 30P      -0.053400
     13 O5           7.0940     2.2310    -2.1410 oh         1 30P      -0.438100
     14 O3           5.6970     0.6440    -0.5130 o          1 30P      -0.618100
     15 S7           4.4040     1.8160     3.0280 sy         1 30P       1.052200
     16 O8           4.1390     3.2110     3.0980 o          1 30P      -0.590300
     17 O9           3.7740     0.8620     3.8720 o          1 30P      -0.590300
     18 C10          6.1390     1.6270     3.2700 ca         1 30P      -0.168500
     19 C15          6.9830     2.7070     3.0960 ca         1 30P       0.017000
     20 C14          8.3440     2.5590     3.2850 ca         1 30P      -0.160000
     21 C13          8.8610     1.3280     3.6510 ca         1 30P       0.156900
     22 F16         10.1920     1.1830     3.8360 f          1 30P      -0.123900
     23 C12          8.0150     0.2470     3.8260 ca         1 30P      -0.144300
     24 C11          6.6540     0.3980     3.6410 ca         1 30P       0.038000
     25 C17          8.5770    -1.0940     4.2240 c3         1 30P       0.070200
     26 N1          -0.7000     0.0060    -1.2090 nv         1 30P      -0.551200
     27 H1           1.9310     0.0000    -0.9380 ha         1 30P       0.114000
     28 H2          -1.7750    -0.0010     1.2070 ha         1 30P       0.105000
     29 H3          -0.5350    -0.0020     3.3380 ha         1 30P       0.103000
     30 H4           1.9290    -0.0000     3.3320 ha         1 30P       0.152000
     31 H5           3.9460    -0.6750     1.9640 h1         1 30P       0.044700
     32 H6           3.9480    -0.3240     0.2300 h1         1 30P       0.044700
     33 H7           4.5190     3.2750     0.7710 h1         1 30P       0.053700
     34 H8           2.1310     2.1620     0.1830 hc         1 30P       0.025367
     35 H9           3.0210     1.7080    -1.2770 hc         1 30P       0.025367
     36 H10          2.8710     3.4120    -0.8260 hc         1 30P       0.025367
     37 H11          5.7870     3.6540    -1.3090 hn         1 30P       0.157500
     38 H12          7.2970     2.8930    -2.7810 ho         1 30P       0.393000
     39 H13          6.5780     3.6700     2.8090 ha         1 30P       0.122000
     40 H14          9.0060     3.4060     3.1470 ha         1 30P       0.123000
     41 H15          5.9910    -0.4480     3.7780 ha         1 30P       0.127000
     42 H16          7.7700    -1.8100     4.3210 hc         1 30P       0.014033
     43 H17          9.0930    -1.0020     5.1720 hc         1 30P       0.014033
     44 H18          9.2720    -1.4340     3.4660 hc         1 30P       0.014033
     45 H19         -0.7530    -0.8270    -1.7610 hn         1 30P       0.269800
     46 H20         -1.1310     0.8500    -1.5340 hn         1 30P       0.269800
@<TRIPOS>BOND
     1     1     2 ar  
     2     1     3 ar  
     3     1    26 1   
     4     2     6 ar  
     5     2    27 1   
     6     3     4 ar  
     7     3    28 1   
     8     4     5 ar  
     9     4    29 1   
    10     5     6 ar  
    11     5    30 1   
    12     6     7 1   
    13     7     8 1   
    14     7    31 1   
    15     7    32 1   
    16     8     9 1   
    17     8    15 1   
    18     9    10 1   
    19     9    11 1   
    20     9    33 1   
    21    10    34 1   
    22    10    35 1   
    23    10    36 1   
    24    11    12 1   
    25    11    14 2   
    26    12    13 1   
    27    12    37 1   
    28    13    38 1   
    29    15    16 2   
    30    15    17 2   
    31    15    18 1   
    32    18    19 ar  
    33    18    24 ar  
    34    19    20 ar  
    35    19    39 1   
    36    20    21 ar  
    37    20    40 1   
    38    21    22 1   
    39    21    23 ar  
    40    23    24 ar  
    41    23    25 1   
    42    24    41 1   
    43    25    42 1   
    44    25    43 1   
    45    25    44 1   
    46    26    45 1   
    47    26    46 1   
@<TRIPOS>SUBSTRUCTURE
     1 30P         1 TEMP              0 ****  ****    0 ROOT
