@<TRIPOS>MOLECULE
molecule
   71    74     1     0     0
SMALL
bcc


@<TRIPOS>ATOM
      1 CAE          1.5290     0.0000     0.0000 c3         1 30Q      -0.097100
      2 CCQ          0.0000     0.0000     0.0000 c3         1 30Q      -0.067000
      3 CBH         -0.5150     0.0000     1.4270 c3         1 30Q      -0.066400
      4 CBG          0.1350    -1.1940     2.1430 c3         1 30Q      -0.082400
      5 CCJ         -0.1700    -2.5110     1.4360 c3         1 30Q      -0.044700
      6 CCP          0.6090    -3.6430     2.1130 c3         1 30Q      -0.000600
      7 CAD          2.0990    -3.3240     1.9840 c3         1 30Q      -0.083100
      8 CAU          0.2820    -3.7150     3.5650 c2         1 30Q      -0.105200
      9 CAT         -0.1270    -4.8130     4.1800 ce         1 30Q      -0.237200
     10 CBV         -0.2920    -6.0620     3.4170 c          1 30Q       0.562500
     11 OAG         -0.6300    -7.0900     3.9730 o          1 30Q      -0.527100
     12 CAV         -0.0370    -6.0390     1.9690 ce         1 30Q      -0.248200
     13 CBZ          0.3670    -4.9250     1.3740 c2         1 30Q      -0.050400
     14 CBC          0.5870    -4.9340    -0.1280 c3         1 30Q      -0.048200
     15 CBD         -0.1980    -3.7660    -0.7320 c3         1 30Q      -0.074400
     16 CCH          0.2160    -2.4600    -0.0510 c3         1 30Q      -0.066700
     17 CCK         -0.5270    -1.2940    -0.6760 c3         1 30Q      -0.063700
     18 CBF         -0.2130    -1.0240    -2.1520 c3         1 30Q      -0.081400
     19 CBE         -0.6040     0.4690    -2.3220 c3         1 30Q      -0.072400
     20 CCI         -0.5170     1.1100    -0.9090 c3         1 30Q      -0.044700
     21 CCD          0.4600     2.2880    -0.9200 c3         1 30Q      -0.148700
     22 CAA          0.5580     2.8820     0.4850 c3         1 30Q      -0.093100
     23 CBY         -0.0350     3.3420    -1.8770 c          1 30Q       0.570700
     24 OAJ         -1.0680     3.1680    -2.4900 o          1 30Q      -0.535100
     25 SBU          0.8590     4.7840    -2.1000 ss         1 30Q      -0.250700
     26 CBA         -0.1900     5.6210    -3.3140 c3         1 30Q      -0.016300
     27 CAY          0.4280     6.9740    -3.6750 c3         1 30Q       0.125000
     28 NBN         -0.4220     7.6520    -4.6570 ns         1 30Q      -0.592900
     29 CBW         -0.0740     8.8670    -5.1250 c          1 30Q       0.657100
     30 OAH          0.9420     9.4000    -4.7330 o          1 30Q      -0.603100
     31 CBB         -0.9480     9.5640    -6.1360 c3         1 30Q      -0.159400
     32 CAZ         -0.3310    10.9170    -6.4970 c3         1 30Q      -0.076100
     33 H1           1.8900    -0.9570     0.3560 hc         1 30Q       0.040033
     34 H2           1.8900     0.7870     0.6510 hc         1 30Q       0.040033
     35 H3           1.8900     0.1710    -1.0070 hc         1 30Q       0.040033
     36 H4          -1.5920    -0.1120     1.4290 hc         1 30Q       0.047700
     37 H5          -0.2330     0.9230     1.9190 hc         1 30Q       0.047700
     38 H6           1.2080    -1.0480     2.1680 hc         1 30Q       0.045700
     39 H7          -0.2440    -1.2430     3.1570 hc         1 30Q       0.045700
     40 H8          -1.2310    -2.7170     1.5170 hc         1 30Q       0.061700
     41 H9           2.3540    -2.5110     2.6540 hc         1 30Q       0.044367
     42 H10          2.3200    -3.0330     0.9640 hc         1 30Q       0.044367
     43 H11          2.6810    -4.2010     2.2430 hc         1 30Q       0.044367
     44 H12          0.3920    -2.8130     4.1560 ha         1 30Q       0.130000
     45 H13         -0.2710    -4.8110     5.2530 ha         1 30Q       0.151000
     46 H14         -0.1520    -6.9460     1.3890 ha         1 30Q       0.152000
     47 H15          0.2270    -5.8680    -0.5430 hc         1 30Q       0.055700
     48 H16          1.6420    -4.8140    -0.3430 hc         1 30Q       0.055700
     49 H17          0.0140    -3.7000    -1.7930 hc         1 30Q       0.049700
     50 H18         -1.2590    -3.9290    -0.5810 hc         1 30Q       0.049700
     51 H19          1.2850    -2.3140    -0.1500 hc         1 30Q       0.067700
     52 H20         -1.5940    -1.3940    -0.5240 hc         1 30Q       0.062700
     53 H21         -0.8200    -1.6520    -2.7920 hc         1 30Q       0.045700
     54 H22          0.8420    -1.1670    -2.3500 hc         1 30Q       0.045700
     55 H23         -1.6150     0.5460    -2.7030 hc         1 30Q       0.050200
     56 H24          0.0910     0.9590    -2.9950 hc         1 30Q       0.050200
     57 H25         -1.4990     1.4320    -0.5840 hc         1 30Q       0.068700
     58 H26          1.4380     1.9440    -1.2360 hc         1 30Q       0.086700
     59 H27          1.4280     2.4770     0.9890 hc         1 30Q       0.047700
     60 H28         -0.3330     2.6310     1.0470 hc         1 30Q       0.047700
     61 H29          0.6500     3.9590     0.4170 hc         1 30Q       0.047700
     62 H30         -0.2700     5.0110    -4.2050 h1         1 30Q       0.078700
     63 H31         -1.1770     5.7760    -2.8930 h1         1 30Q       0.078700
     64 H32          0.5070     7.5850    -2.7840 h1         1 30Q       0.064700
     65 H33          1.4140     6.8200    -4.0960 h1         1 30Q       0.064700
     66 H34         -1.2600     7.2120    -4.9810 hn         1 30Q       0.314500
     67 H35         -1.0260     8.9530    -7.0270 hc         1 30Q       0.057700
     68 H36         -1.9340     9.7180    -5.7160 hc         1 30Q       0.057700
     69 H37         -0.2520    11.5280    -5.6060 hc         1 30Q       0.044367
     70 H38         -0.9590    11.4180    -7.2240 hc         1 30Q       0.044367
     71 H39          0.6560    10.7630    -6.9180 hc         1 30Q       0.044367
@<TRIPOS>BOND
     1    32    31 1
     2    31    29 1
     3    30    29 2
     4    29    28 1
     5    28    27 1
     6    27    26 1
     7    26    25 1
     8    25    23 1
     9    24    23 2
    10    23    21 1
    11    22    21 1
    12    21    20 1
    13     1     2 1
    14    19    20 1
    15    19    18 1
    16    20     2 1
    17     2     3 1
    18     2    17 1
    19    18    17 1
    20     3     4 1
    21    17    16 1
    22     4     5 1
    23    16     5 1
    24    16    15 1
    25     5     6 1
    26    15    14 1
    27     7     6 1
    28     6     8 1
    29     6    13 1
    30    14    13 1
    31     8     9 2
    32    13    12 2
    33     9    10 1
    34    12    10 1
    35    10    11 2
    36     1    33 1
    37     1    34 1
    38     1    35 1
    39     3    36 1
    40     3    37 1
    41     4    38 1
    42     4    39 1
    43     5    40 1
    44     7    41 1
    45     7    42 1
    46     7    43 1
    47     8    44 1
    48     9    45 1
    49    12    46 1
    50    14    47 1
    51    14    48 1
    52    15    49 1
    53    15    50 1
    54    16    51 1
    55    17    52 1
    56    18    53 1
    57    18    54 1
    58    19    55 1
    59    19    56 1
    60    20    57 1
    61    21    58 1
    62    22    59 1
    63    22    60 1
    64    22    61 1
    65    26    62 1
    66    26    63 1
    67    27    64 1
    68    27    65 1
    69    28    66 1
    70    31    67 1
    71    31    68 1
    72    32    69 1
    73    32    70 1
    74    32    71 1
@<TRIPOS>SUBSTRUCTURE
     1 30Q         1 TEMP              0 ****  ****    0 ROOT
