@<TRIPOS>MOLECULE
30R
   50    51     1     0     0
SMALL
bcc


@<TRIPOS>ATOM
      1 C1           1.5300     0.0000     0.0000 c3         1 30R       0.144500
      2 C2           2.0330     0.0000     1.4210 c          1 30R       0.536100
      3 C3           2.9720    -1.1590    -6.5850 c3         1 30R       0.040100
      4 O3           2.3130     1.0480     1.9640 o          1 30R      -0.609100
      5 N4           2.1700    -1.1630     2.0870 ns         1 30R      -0.043400
      6 N5           1.5910    -1.5930    -6.8330 nz         1 30R       0.073400
      7 C10          1.1270     3.3120     0.8250 ca         1 30R      -0.143500
      8 C11          2.0990     4.2530     1.1090 ca         1 30R       0.034000
      9 C12          2.1390     4.8520     2.3540 ca         1 30R      -0.139300
     10 C13          1.2030     4.5100     3.3160 ca         1 30R       0.170900
     11 C14          0.2300     3.5690     3.0310 ca         1 30R      -0.145000
     12 C15          0.1930     2.9700     1.7860 ca         1 30R       0.027000
     13 C17          3.1990     5.8770     2.6640 c3         1 30R       0.070200
     14 C18          3.3420     1.1900    -1.3180 c3         1 30R       0.280100
     15 C19          3.2450     0.5760    -2.6920 ca         1 30R      -0.062300
     16 C20          3.4550    -0.7790    -2.8590 ca         1 30R      -0.070000
     17 C21          3.3660    -1.3410    -4.1200 ca         1 30R      -0.069500
     18 C22          3.0680    -0.5470    -5.2120 ca         1 30R      -0.218300
     19 C23          2.8580     0.8090    -5.0430 ca         1 30R      -0.069500
     20 C24          2.9420     1.3700    -3.7820 ca         1 30R      -0.070000
     21 C28          0.0000     0.0000     0.0000 c3         1 30R      -0.059100
     22 N6           2.0180     1.1960    -0.6910 n3         1 30R      -0.501500
     23 O5           2.6430    -1.1620     3.4220 oh         1 30R      -0.430100
     24 S7           1.0740     2.5530    -0.7640 sy         1 30R       1.058200
     25 O8          -0.2610     2.1040    -0.9490 o          1 30R      -0.600300
     26 O9           1.7240     3.4470    -1.6570 o          1 30R      -0.600300
     27 F16          1.2420     5.0960     4.5330 f          1 30R      -0.119900
     28 H1           1.8910    -0.8850    -0.5110 h1         1 30R       0.016700
     29 H2           3.6350    -2.0140    -6.6460 hx         1 30R       0.081200
     30 H3           3.2590    -0.4250    -7.3280 hx         1 30R       0.081200
     31 H4           1.9310    -2.0260     1.6410 hn         1 30R       0.152500
     32 H5           1.2600    -2.1170    -6.0470 hn         1 30R       0.222800
     33 H6           1.0080    -0.7900    -6.9670 hn         1 30R       0.222800
     34 H8           2.8300     4.5200     0.3560 ha         1 30R       0.120000
     35 H9          -0.5020     3.3000     3.7830 ha         1 30R       0.125000
     36 H10         -0.5690     2.2320     1.5620 ha         1 30R       0.120000
     37 H11          3.8780     5.9590     1.8240 hc         1 30R       0.015033
     38 H12          3.7500     5.5730     3.5450 hc         1 30R       0.015033
     39 H13          2.7310     6.8380     2.8440 hc         1 30R       0.015033
     40 H14          4.0270     0.6100    -0.7110 h1         1 30R       0.043200
     41 H15          3.7070     2.2070    -1.4020 h1         1 30R       0.043200
     42 H16          3.6880    -1.4010    -2.0040 ha         1 30R       0.141000
     43 H17          3.5300    -2.4030    -4.2520 ha         1 30R       0.107500
     44 H18          2.6210     1.4300    -5.8980 ha         1 30R       0.107500
     45 H19          2.7770     2.4320    -3.6500 ha         1 30R       0.141000
     46 H20         -0.3610     0.7680     0.6740 hc         1 30R       0.042367
     47 H21         -0.3610     0.2000    -1.0020 hc         1 30R       0.042367
     48 H22         -0.3610    -0.9670     0.3280 hc         1 30R       0.042367
     49 H23          2.8540    -2.0440     3.6810 ho         1 30R       0.399000
     50 H53          1.5620    -2.1600    -7.6570 hn         1 30R       0.222800
@<TRIPOS>BOND
     1     1     2 1   
     2     1    21 1   
     3     1    22 1   
     4     1    28 1   
     5     2     4 2   
     6     2     5 1   
     7     3     6 1   
     8     3    18 1   
     9     3    29 1   
    10     3    30 1   
    11     5    23 1   
    12     5    31 1   
    13     6    32 1   
    14     6    33 1   
    15     6    50 1   
    16     7     8 ar  
    17     7    12 ar  
    18     7    24 1   
    19     8     9 ar  
    20     8    34 1   
    21     9    10 ar  
    22     9    13 1   
    23    10    11 ar  
    24    10    27 1   
    25    11    12 ar  
    26    11    35 1   
    27    12    36 1   
    28    13    37 1   
    29    13    38 1   
    30    13    39 1   
    31    14    15 1   
    32    14    22 1   
    33    14    40 1   
    34    14    41 1   
    35    15    16 ar  
    36    15    20 ar  
    37    16    17 ar  
    38    16    42 1   
    39    17    18 ar  
    40    17    43 1   
    41    18    19 ar  
    42    19    20 ar  
    43    19    44 1   
    44    20    45 1   
    45    21    46 1   
    46    21    47 1   
    47    21    48 1   
    48    22    24 1   
    49    23    49 1   
    50    24    25 2   
    51    24    26 2   
@<TRIPOS>SUBSTRUCTURE
     1 30R         1 TEMP              0 ****  ****    0 ROOT
