@<TRIPOS>MOLECULE
molecule
   50    51     1     0     0
SMALL
bcc


@<TRIPOS>ATOM
      1 C1           1.5300     0.0000     0.0000 c3         1 30R       0.175500
      2 C2           2.0330     0.0000     1.4210 c          1 30R       0.640100
      3 C3           2.9720    -1.1590    -6.5850 c3         1 30R       0.160100
      4 O3           2.3130     1.0480     1.9640 o          1 30R      -0.555100
      5 N4           2.1700    -1.1630     2.0870 ns         1 30R      -0.467400
      6 N5           1.5910    -1.5930    -6.8330 nz         1 30R      -0.810600
      7 C10          1.1270     3.3120     0.8250 ca         1 30R      -0.309500
      8 C11          2.0990     4.2530     1.1090 ca         1 30R       0.003000
      9 C12          2.1390     4.8520     2.3540 ca         1 30R      -0.133300
     10 C13          1.2030     4.5100     3.3160 ca         1 30R       0.200900
     11 C14          0.2300     3.5690     3.0310 ca         1 30R      -0.174000
     12 C15          0.1930     2.9700     1.7860 ca         1 30R       0.001000
     13 C17          3.1990     5.8770     2.6640 c3         1 30R      -0.044800
     14 C18          3.3420     1.1900    -1.3180 c3         1 30R       0.274100
     15 C19          3.2450     0.5760    -2.6920 ca         1 30R      -0.058300
     16 C20          3.4550    -0.7790    -2.8590 ca         1 30R      -0.103500
     17 C21          3.3660    -1.3410    -4.1200 ca         1 30R      -0.101000
     18 C22          3.0680    -0.5470    -5.2120 ca         1 30R      -0.199300
     19 C23          2.8580     0.8090    -5.0430 ca         1 30R      -0.101000
     20 C24          2.9420     1.3700    -3.7820 ca         1 30R      -0.103500
     21 C28          0.0000     0.0000     0.0000 c3         1 30R      -0.119100
     22 N6           2.0180     1.1960    -0.6910 n3         1 30R      -0.793500
     23 O5           2.6430    -1.1620     3.4220 oh         1 30R      -0.351100
     24 S7           1.0740     2.5530    -0.7640 sy         1 30R       1.432200
     25 O8          -0.2610     2.1040    -0.9490 o          1 30R      -0.648300
     26 O9           1.7240     3.4470    -1.6570 o          1 30R      -0.648300
     27 F16          1.2420     5.0960     4.5330 f          1 30R      -0.125900
     28 H1           1.8910    -0.8850    -0.5110 h1         1 30R       0.053700
     29 H2           3.6350    -2.0140    -6.6460 hx         1 30R       0.112200
     30 H3           3.2590    -0.4250    -7.3280 hx         1 30R       0.112200
     31 H4           1.9310    -2.0260     1.6410 hn         1 30R       0.317500
     32 H5           1.2600    -2.1170    -6.0470 hn         1 30R       0.454800
     33 H6           1.0080    -0.7900    -6.9670 hn         1 30R       0.454800
     34 H8           2.8300     4.5200     0.3560 ha         1 30R       0.147000
     35 H9          -0.5020     3.3000     3.7830 ha         1 30R       0.155000
     36 H10         -0.5690     2.2320     1.5620 ha         1 30R       0.145000
     37 H11          3.8780     5.9590     1.8240 hc         1 30R       0.052367
     38 H12          3.7500     5.5730     3.5450 hc         1 30R       0.052367
     39 H13          2.7310     6.8380     2.8440 hc         1 30R       0.052367
     40 H14          4.0270     0.6100    -0.7110 h1         1 30R       0.084200
     41 H15          3.7070     2.2070    -1.4020 h1         1 30R       0.084200
     42 H16          3.6880    -1.4010    -2.0040 ha         1 30R       0.170000
     43 H17          3.5300    -2.4030    -4.2520 ha         1 30R       0.137000
     44 H18          2.6210     1.4300    -5.8980 ha         1 30R       0.137000
     45 H19          2.7770     2.4320    -3.6500 ha         1 30R       0.170000
     46 H20         -0.3610     0.7680     0.6740 hc         1 30R       0.070033
     47 H21         -0.3610     0.2000    -1.0020 hc         1 30R       0.070033
     48 H22         -0.3610    -0.9670     0.3280 hc         1 30R       0.070033
     49 H23          2.8540    -2.0440     3.6810 ho         1 30R       0.405000
     50 H53          1.5620    -2.1600    -7.6570 hn         1 30R       0.454800
@<TRIPOS>BOND
     1    17    16 ar
     2    17    18 ar
     3    16    15 ar
     4     3    18 1
     5     3     6 1
     6    25    24 2
     7    26    24 2
     8    18    19 ar
     9    21     1 1
    10    24    22 1
    11    24     7 1
    12    15    14 1
    13    15    20 ar
    14     1    22 1
    15     1     2 1
    16    22    14 1
    17    19    20 ar
    18     7     8 ar
    19     7    12 ar
    20     2     5 1
    21     2     4 2
    22     5    23 1
    23     8     9 ar
    24    12    11 ar
    25     9    13 1
    26     9    10 ar
    27    11    10 ar
    28    10    27 1
    29     1    28 1
    30     3    29 1
    31     3    30 1
    32     5    31 1
    33     6    32 1
    34     6    33 1
    35     8    34 1
    36    11    35 1
    37    12    36 1
    38    13    37 1
    39    13    38 1
    40    13    39 1
    41    14    40 1
    42    14    41 1
    43    16    42 1
    44    17    43 1
    45    19    44 1
    46    20    45 1
    47    21    46 1
    48    21    47 1
    49    21    48 1
    50    23    49 1
    51    50     6 1
@<TRIPOS>SUBSTRUCTURE
     1 30R         1 TEMP              0 ****  ****    0 ROOT
