@<TRIPOS>MOLECULE
30S
   37    39     1     0     0
SMALL
bcc


@<TRIPOS>ATOM
      1 C1           0.0000     0.0000     0.0000 ca         1 30S      -0.096000
      2 C2           1.3810     0.0000     0.0000 ca         1 30S      -0.157000
      3 C3           2.0730     0.0000     1.1980 ca         1 30S       0.008000
      4 C4           1.3810     0.0000     2.3950 ca         1 30S      -0.092500
      5 C5          -0.0020     0.0010     2.3940 ca         1 30S      -0.014300
      6 C6          -0.6920     0.0000     1.1970 ca         1 30S      -0.150000
      7 C7          -0.7560     0.0010     3.6980 c3         1 30S       0.212700
      8 O1          -2.1550     0.1280     3.4410 os         1 30S      -0.303900
      9 C8          -2.9720     0.2560     4.5170 ca         1 30S       0.218100
     10 C9          -2.4400     0.3690     5.7860 ca         1 30S      -0.238000
     11 C10         -3.2700     0.5060     6.8930 ca         1 30S      -0.015000
     12 C11         -4.6270     0.5320     6.7570 ca         1 30S      -0.233300
     13 C12         -5.2030     0.4200     5.4850 ca         1 30S       0.438600
     14 C13         -4.3660     0.2800     4.3520 ca         1 30S      -0.320600
     15 C14         -4.9720     0.1740     3.0780 ca         1 30S       0.591200
     16 N1          -6.2950     0.2050     3.0040 nb         1 30S      -0.685000
     17 C15         -7.0450     0.3320     4.0950 ca         1 30S       0.716900
     18 N2          -6.5330     0.4400     5.3060 nb         1 30S      -0.641000
     19 N3          -8.4210     0.3580     3.9530 nv         1 30S      -0.645500
     20 N4          -4.2040     0.0420     1.9390 nv         1 30S      -0.648500
     21 S1           2.2620    -0.0010     3.9210 s6         1 30S       1.029100
     22 O2           2.5960     1.3540     4.1920 o          1 30S      -0.656533
     23 O3           1.5120    -0.8110     4.8160 o          1 30S      -0.656533
     24 H1          -0.5410    -0.0000    -0.9380 ha         1 30S       0.082000
     25 H2           1.9230    -0.0000    -0.9380 ha         1 30S       0.088000
     26 H3           3.1560    -0.0000     1.1980 ha         1 30S       0.124000
     27 H4          -1.7750     0.0000     1.1960 ha         1 30S       0.105000
     28 H6          -0.4240     0.8330     4.3080 h1         1 30S       0.054700
     29 H5          -0.5690    -0.9280     4.2230 h1         1 30S       0.054700
     30 H7          -1.3660     0.3500     5.9210 ha         1 30S       0.157000
     31 H8          -2.8310     0.5920     7.8800 ha         1 30S       0.098000
     32 H9          -5.2580     0.6390     7.6310 ha         1 30S       0.115000
     33 H10         -8.8930     1.2290     3.8110 hn         1 30S       0.271800
     34 H11         -8.9430    -0.4960     3.9780 hn         1 30S       0.271800
     35 H12         -3.9140    -0.8660     1.6350 hn         1 30S       0.286800
     36 H13         -3.9950     0.8460     1.3820 hn         1 30S       0.286800
     37 O4           3.5760    -0.7280     3.6810 o          1 30S      -0.656533
@<TRIPOS>BOND
     1     1     2 ar  
     2     1     6 ar  
     3     1    24 1   
     4     2     3 ar  
     5     2    25 1   
     6     3     4 ar  
     7     3    26 1   
     8     4     5 ar  
     9     4    21 1   
    10     5     6 ar  
    11     5     7 1   
    12     6    27 1   
    13     7     8 1   
    14     7    28 1   
    15     7    29 1   
    16     8     9 1   
    17     9    10 ar  
    18     9    14 ar  
    19    10    11 ar  
    20    10    30 1   
    21    11    12 ar  
    22    11    31 1   
    23    12    13 ar  
    24    12    32 1   
    25    13    14 ar  
    26    13    18 ar  
    27    14    15 ar  
    28    15    16 ar  
    29    15    20 1   
    30    16    17 ar  
    31    17    18 ar  
    32    17    19 1   
    33    19    33 1   
    34    19    34 1   
    35    20    35 1   
    36    20    36 1   
    37    21    22 1   
    38    21    23 1   
    39    21    37 1   
@<TRIPOS>SUBSTRUCTURE
     1 30S         1 TEMP              0 ****  ****    0 ROOT
