@<TRIPOS>MOLECULE
30T
   62    66     1     0     0
SMALL
bcc


@<TRIPOS>ATOM
      1 C1           0.0000     0.0000     0.0000 ca         1 30T      -0.257300
      2 C2           1.3850     0.0000     0.0000 ca         1 30T      -0.009500
      3 C3           2.0470     0.0000     1.2170 ca         1 30T      -0.272300
      4 C4           1.3070    -0.0010     2.3940 ca         1 30T       0.539200
      5 N5          -0.0170    -0.0010     2.3590 nb         1 30T      -0.672000
      6 C6          -0.6800     0.0040     1.2110 ca         1 30T       0.520200
      7 S7           2.2860     0.0000    -1.5150 sy         1 30T       0.960600
      8 C8           2.5510     1.6840    -1.9620 ca         1 30T      -0.142500
      9 C9           1.6240     2.3460    -2.7460 ca         1 30T       0.002500
     10 C10          1.8300     3.6680    -3.0920 ca         1 30T      -0.132000
     11 C11          2.9640     4.3280    -2.6570 ca         1 30T      -0.047000
     12 C12          3.8900     3.6670    -1.8730 ca         1 30T      -0.132000
     13 C13          3.6850     2.3450    -1.5270 ca         1 30T       0.002500
     14 O14          3.5660    -0.5430    -1.2200 o          1 30T      -0.590300
     15 O15          1.4170    -0.5440    -2.4970 o          1 30T      -0.590300
     16 N16          1.9640    -0.0010     3.6190 nu         1 30T      -0.507900
     17 N17         -2.0710     0.0030     1.2200 nu         1 30T      -0.367600
     18 C18         -2.7630    -0.1040     2.4320 cc         1 30T       0.459200
     19 C19         -2.1860    -0.0980     3.7090 cc         1 30T      -0.338300
     20 C20         -3.1930    -0.2230     4.6240 cd         1 30T      -0.187300
     21 N21         -4.3640    -0.3050     3.9320 na         1 30T       0.456400
     22 N22         -4.0650    -0.2230     2.5660 nd         1 30T      -0.710800
     23 C23          3.4270    -0.0010     3.6660 c3         1 30T       0.127500
     24 C24          3.8950     0.6080     4.9890 c3         1 30T      -0.037900
     25 C25          5.4240     0.6080     5.0380 c3         1 30T      -0.038900
     26 C26          5.9380    -0.8290     4.9280 c3         1 30T       0.189100
     27 C27          5.4700    -1.4380     3.6050 c3         1 30T      -0.038900
     28 C28          3.9410    -1.4380     3.5560 c3         1 30T      -0.037900
     29 O29          7.3660    -0.8280     4.9740 oh         1 30T      -0.582800
     30 C30         -3.0400    -0.2630     6.0940 ca         1 30T      -0.001000
     31 C31         -1.7730    -0.1630     6.6700 ca         1 30T      -0.096500
     32 C32         -1.6370    -0.2010     8.0420 ca         1 30T      -0.094000
     33 C33         -2.7530    -0.3370     8.8480 ca         1 30T      -0.099000
     34 C34         -4.0120    -0.4370     8.2830 ca         1 30T      -0.094000
     35 C35         -4.1620    -0.3950     6.9120 ca         1 30T      -0.096500
     36 H1          -0.5470     0.0020    -0.9350 ha         1 30T       0.137000
     37 H2           3.1300     0.0000     1.2510 ha         1 30T       0.147000
     38 H3           0.7350     1.8290    -3.0870 ha         1 30T       0.121500
     39 H4           1.1040     4.1860    -3.7070 ha         1 30T       0.109000
     40 H5           3.1250     5.3640    -2.9280 ha         1 30T       0.102000
     41 H6           4.7790     4.1840    -1.5310 ha         1 30T       0.109000
     42 H7           4.4110     1.8270    -0.9120 ha         1 30T       0.121500
     43 H8           1.4360    -0.0010     4.4690 hn         1 30T       0.295800
     44 H9          -2.5770     0.0800     0.3600 hn         1 30T       0.290800
     45 H10         -1.1290    -0.0100     3.9310 ha         1 30T       0.186000
     46 H11         -5.2780    -0.4020     4.3290 hn         1 30T       0.147700
     47 H12          3.8200     0.5840     2.8430 h1         1 30T       0.047700
     48 H13          3.5090     0.0200     5.8130 hc         1 30T       0.023200
     49 H14          3.5330     1.6260     5.0650 hc         1 30T       0.023200
     50 H15          5.7540     1.0380     5.9770 hc         1 30T       0.026450
     51 H16          5.8110     1.1930     4.2120 hc         1 30T       0.026450
     52 H17          5.5460    -1.4140     5.7520 h1         1 30T      -0.002300
     53 H18          5.8330    -2.4560     3.5300 hc         1 30T       0.026450
     54 H19          5.8570    -0.8500     2.7820 hc         1 30T       0.026450
     55 H20          3.6120    -1.8680     2.6180 hc         1 30T       0.023200
     56 H21          3.5550    -2.0230     4.3830 hc         1 30T       0.023200
     57 H22          7.6570    -1.3390     5.7120 ho         1 30T       0.388000
     58 H23         -0.8980    -0.0560     6.0400 ha         1 30T       0.105000
     59 H24         -0.6530    -0.1230     8.4900 ha         1 30T       0.103000
     60 H25         -2.6410    -0.3680     9.9250 ha         1 30T       0.103000
     61 H26         -4.8840    -0.5420     8.9180 ha         1 30T       0.103000
     62 H27         -5.1480    -0.4730     6.4710 ha         1 30T       0.105000
@<TRIPOS>BOND
     1     1     2 ar  
     2     1     6 ar  
     3     1    36 1   
     4     2     3 ar  
     5     2     7 1   
     6     3     4 ar  
     7     3    37 1   
     8     4     5 ar  
     9     4    16 1   
    10     5     6 ar  
    11     6    17 1   
    12     7     8 1   
    13     7    14 2   
    14     7    15 2   
    15     8     9 ar  
    16     8    13 ar  
    17     9    10 ar  
    18     9    38 1   
    19    10    11 ar  
    20    10    39 1   
    21    11    12 ar  
    22    11    40 1   
    23    12    13 ar  
    24    12    41 1   
    25    13    42 1   
    26    16    23 1   
    27    16    43 1   
    28    17    18 1   
    29    17    44 1   
    30    18    19 1   
    31    18    22 2   
    32    19    20 2   
    33    19    45 1   
    34    20    21 1   
    35    20    30 1   
    36    21    22 1   
    37    21    46 1   
    38    23    24 1   
    39    23    28 1   
    40    23    47 1   
    41    24    25 1   
    42    24    48 1   
    43    24    49 1   
    44    25    26 1   
    45    25    50 1   
    46    25    51 1   
    47    26    27 1   
    48    26    29 1   
    49    26    52 1   
    50    27    28 1   
    51    27    53 1   
    52    27    54 1   
    53    28    55 1   
    54    28    56 1   
    55    29    57 1   
    56    30    31 ar  
    57    30    35 ar  
    58    31    32 ar  
    59    31    58 1   
    60    32    33 ar  
    61    32    59 1   
    62    33    34 ar  
    63    33    60 1   
    64    34    35 ar  
    65    34    61 1   
    66    35    62 1   
@<TRIPOS>SUBSTRUCTURE
     1 30T         1 TEMP              0 ****  ****    0 ROOT
