@<TRIPOS>MOLECULE
molecule
   62    66     1     0     0
SMALL
bcc


@<TRIPOS>ATOM
      1 C1           0.0000     0.0000     0.0000 ca         1 30T      -0.274300
      2 C2           1.3850     0.0000     0.0000 ca         1 30T      -0.176500
      3 C3           2.0470     0.0000     1.2170 ca         1 30T      -0.278300
      4 C4           1.3070    -0.0010     2.3940 ca         1 30T       0.731200
      5 N5          -0.0170    -0.0010     2.3590 nb         1 30T      -0.790000
      6 C6          -0.6800     0.0040     1.2110 ca         1 30T       0.737200
      7 S7           2.2860     0.0000    -1.5150 sy         1 30T       1.292600
      8 C8           2.5510     1.6840    -1.9620 ca         1 30T      -0.296500
      9 C9           1.6240     2.3460    -2.7460 ca         1 30T      -0.027000
     10 C10          1.8300     3.6680    -3.0920 ca         1 30T      -0.150000
     11 C11          2.9640     4.3280    -2.6570 ca         1 30T      -0.072000
     12 C12          3.8900     3.6670    -1.8730 ca         1 30T      -0.150000
     13 C13          3.6850     2.3450    -1.5270 ca         1 30T      -0.027000
     14 O14          3.5660    -0.5430    -1.2200 o          1 30T      -0.622300
     15 O15          1.4170    -0.5440    -2.4970 o          1 30T      -0.622300
     16 N16          1.9640    -0.0010     3.6190 nu         1 30T      -0.913900
     17 N17         -2.0710     0.0030     1.2200 nu         1 30T      -0.848600
     18 C18         -2.7630    -0.1040     2.4320 cc         1 30T       0.588200
     19 C19         -2.1860    -0.0980     3.7090 cc         1 30T      -0.325300
     20 C20         -3.1930    -0.2230     4.6240 cd         1 30T      -0.026300
     21 N21         -4.3640    -0.3050     3.9320 na         1 30T      -0.041600
     22 N22         -4.0650    -0.2230     2.5660 nd         1 30T      -0.557800
     23 C23          3.4270    -0.0010     3.6660 c3         1 30T       0.242500
     24 C24          3.8950     0.6080     4.9890 c3         1 30T      -0.096900
     25 C25          5.4240     0.6080     5.0380 c3         1 30T      -0.089400
     26 C26          5.9380    -0.8290     4.9280 c3         1 30T       0.144100
     27 C27          5.4700    -1.4380     3.6050 c3         1 30T      -0.089400
     28 C28          3.9410    -1.4380     3.5560 c3         1 30T      -0.096900
     29 O29          7.3660    -0.8280     4.9740 oh         1 30T      -0.603800
     30 C30         -3.0400    -0.2630     6.0940 ca         1 30T      -0.016000
     31 C31         -1.7730    -0.1630     6.6700 ca         1 30T      -0.114500
     32 C32         -1.6370    -0.2010     8.0420 ca         1 30T      -0.124500
     33 C33         -2.7530    -0.3370     8.8480 ca         1 30T      -0.123000
     34 C34         -4.0120    -0.4370     8.2830 ca         1 30T      -0.124500
     35 C35         -4.1620    -0.3950     6.9120 ca         1 30T      -0.114500
     36 H1          -0.5470     0.0020    -0.9350 ha         1 30T       0.154000
     37 H2           3.1300     0.0000     1.2510 ha         1 30T       0.158000
     38 H3           0.7350     1.8290    -3.0870 ha         1 30T       0.150000
     39 H4           1.1040     4.1860    -3.7070 ha         1 30T       0.137500
     40 H5           3.1250     5.3640    -2.9280 ha         1 30T       0.134000
     41 H6           4.7790     4.1840    -1.5310 ha         1 30T       0.137500
     42 H7           4.4110     1.8270    -0.9120 ha         1 30T       0.150000
     43 H8           1.4360    -0.0010     4.4690 hn         1 30T       0.445800
     44 H9          -2.5770     0.0800     0.3600 hn         1 30T       0.468800
     45 H10         -1.1290    -0.0100     3.9310 ha         1 30T       0.197000
     46 H11         -5.2780    -0.4020     4.3290 hn         1 30T       0.330700
     47 H12          3.8200     0.5840     2.8430 h1         1 30T       0.065700
     48 H13          3.5090     0.0200     5.8130 hc         1 30T       0.052700
     49 H14          3.5330     1.6260     5.0650 hc         1 30T       0.052700
     50 H15          5.7540     1.0380     5.9770 hc         1 30T       0.056950
     51 H16          5.8110     1.1930     4.2120 hc         1 30T       0.056950
     52 H17          5.5460    -1.4140     5.7520 h1         1 30T       0.030700
     53 H18          5.8330    -2.4560     3.5300 hc         1 30T       0.056950
     54 H19          5.8570    -0.8500     2.7820 hc         1 30T       0.056950
     55 H20          3.6120    -1.8680     2.6180 hc         1 30T       0.052700
     56 H21          3.5550    -2.0230     4.3830 hc         1 30T       0.052700
     57 H22          7.6570    -1.3390     5.7120 ho         1 30T       0.402000
     58 H23         -0.8980    -0.0560     6.0400 ha         1 30T       0.130000
     59 H24         -0.6530    -0.1230     8.4900 ha         1 30T       0.132000
     60 H25         -2.6410    -0.3680     9.9250 ha         1 30T       0.132000
     61 H26         -4.8840    -0.5420     8.9180 ha         1 30T       0.132000
     62 H27         -5.1480    -0.4730     6.4710 ha         1 30T       0.130000
@<TRIPOS>BOND
     1    22    21 1
     2    22    18 2
     3    21    20 1
     4    31    32 ar
     5    31    30 ar
     6    10    11 ar
     7    10     9 ar
     8    11    12 ar
     9    32    33 ar
    10    18    17 1
    11    18    19 1
    12    17     6 1
    13    20    30 1
    14    20    19 2
    15    30    35 ar
    16     9     8 ar
    17    12    13 ar
    18    33    34 ar
    19     6     1 ar
    20     6     5 ar
    21     1     2 ar
    22     8    13 ar
    23     8     7 1
    24    35    34 ar
    25     5     4 ar
    26     2     7 1
    27     2     3 ar
    28    15     7 2
    29     7    14 2
    30     4     3 ar
    31     4    16 1
    32    23    16 1
    33    23    24 1
    34    23    28 1
    35    25    24 1
    36    25    26 1
    37    28    27 1
    38    27    26 1
    39    29    26 1
    40     1    36 1
    41     3    37 1
    42     9    38 1
    43    10    39 1
    44    11    40 1
    45    12    41 1
    46    13    42 1
    47    16    43 1
    48    17    44 1
    49    19    45 1
    50    21    46 1
    51    23    47 1
    52    24    48 1
    53    24    49 1
    54    25    50 1
    55    25    51 1
    56    26    52 1
    57    27    53 1
    58    27    54 1
    59    28    55 1
    60    28    56 1
    61    29    57 1
    62    31    58 1
    63    32    59 1
    64    33    60 1
    65    34    61 1
    66    35    62 1
@<TRIPOS>SUBSTRUCTURE
     1 30T         1 TEMP              0 ****  ****    0 ROOT
