@<TRIPOS>MOLECULE
molecule
   37    39     1     0     0
SMALL
bcc


@<TRIPOS>ATOM
      1 C1           0.0000     0.0000     0.0000 ca         1 30U      -0.081000
      2 C2           1.3650     0.0000     0.0000 ca         1 30U      -0.247300
      3 C3           2.0630     0.0000     1.2140 ca         1 30U       0.493600
      4 C4           1.3400    -0.0010     2.4320 ca         1 30U      -0.330600
      5 C5          -0.0640    -0.0010     2.4060 ca         1 30U       0.231100
      6 C6          -0.7170    -0.0010     1.1910 ca         1 30U      -0.277000
      7 O1          -0.7710    -0.0010     3.5650 os         1 30U      -0.300900
      8 C7          -2.1960    -0.0010     3.4550 c3         1 30U       0.184700
      9 C8          -2.8050    -0.0020     4.8340 ca         1 30U      -0.097300
     10 C9          -3.0850     1.1950     5.4660 ca         1 30U      -0.144500
     11 C10         -3.6440     1.1950     6.7300 ca         1 30U      -0.043000
     12 C11         -3.9240    -0.0030     7.3630 ca         1 30U      -0.239500
     13 C12         -3.6440    -1.2000     6.7290 ca         1 30U      -0.043000
     14 C13         -3.0910    -1.1990     5.4630 ca         1 30U      -0.144500
     15 S1          -4.6350    -0.0030     8.9750 s6         1 30U       1.321100
     16 O2          -4.3000    -1.2530     9.5610 o          1 30U      -0.707533
     17 O3          -4.2990     1.2470     9.5610 o          1 30U      -0.707533
     18 C14          2.0680    -0.0020     3.6450 ca         1 30U       0.782200
     19 N1           3.3920    -0.0030     3.5850 nb         1 30U      -0.802000
     20 C15          4.0330    -0.0020     2.4200 ca         1 30U       0.949900
     21 N2           3.4040    -0.0010     1.2600 nb         1 30U      -0.766000
     22 N3           5.4150    -0.0020     2.4240 nv         1 30U      -1.064500
     23 N4           1.4160    -0.0030     4.8600 nv         1 30U      -1.063500
     24 H1          -0.4530     0.0010    -0.9840 ha         1 30U       0.125000
     25 H2           1.8550     0.0000    -0.9660 ha         1 30U       0.140000
     26 H3          -1.7250    -0.0030     0.7920 ha         1 30U       0.151000
     27 H5          -2.5170    -0.8850     2.9180 h1         1 30U       0.037200
     28 H4          -2.5170     0.8840     2.9190 h1         1 30U       0.037200
     29 H6          -2.8660     2.1330     4.9700 ha         1 30U       0.114000
     30 H7          -3.8630     2.1330     7.2250 ha         1 30U       0.153000
     31 H8          -3.8650    -2.1390     7.2230 ha         1 30U       0.153000
     32 H9          -2.8720    -2.1370     4.9670 ha         1 30U       0.114000
     33 H10          5.9160    -0.8690     2.4220 hn         1 30U       0.438800
     34 H11          5.9160     0.8650     2.4290 hn         1 30U       0.438800
     35 H12          1.3360    -0.8520     5.3840 hn         1 30U       0.451300
     36 H13          1.0760     0.8560     5.2460 hn         1 30U       0.451300
     37 O4          -6.1470    -0.0030     8.8000 o          1 30U      -0.707533
@<TRIPOS>BOND
     1    17    15 1   
     2     1     2 ar  
     3     1     6 ar  
     4     2     3 ar  
     5    15    16 1   
     6    15    12 1   
     7     6     5 ar  
     8    13    12 ar  
     9    13    14 ar  
    10    12    11 ar  
    11     3    21 ar  
    12     3     4 ar  
    13    21    20 ar  
    14    14     9 ar  
    15    11    10 ar  
    16     5     4 ar  
    17     5     7 1   
    18     4    18 ar  
    19    20    22 1   
    20    20    19 ar  
    21     9    10 ar  
    22     9     8 1   
    23     7     8 1   
    24    18    19 ar  
    25    18    23 1   
    26     1    24 1   
    27     2    25 1   
    28     6    26 1   
    29     8    27 1   
    30     8    28 1   
    31    10    29 1   
    32    11    30 1   
    33    13    31 1   
    34    14    32 1   
    35    22    33 1   
    36    22    34 1   
    37    23    35 1   
    38    23    36 1   
    39    15    37 1   
@<TRIPOS>SUBSTRUCTURE
     1 30U         1 TEMP              0 ****  ****    0 ROOT
