@<TRIPOS>MOLECULE
30U
   37    39     1     0     0
SMALL
bcc


@<TRIPOS>ATOM
      1 C1           0.0000     0.0000     0.0000 ca         1 30U      -0.055000
      2 C2           1.3650     0.0000     0.0000 ca         1 30U      -0.229300
      3 C3           2.0630     0.0000     1.2140 ca         1 30U       0.450600
      4 C4           1.3400    -0.0010     2.4320 ca         1 30U      -0.326600
      5 C5          -0.0640    -0.0010     2.4060 ca         1 30U       0.249100
      6 C6          -0.7170    -0.0010     1.1910 ca         1 30U      -0.262000
      7 O1          -0.7710    -0.0010     3.5650 os         1 30U      -0.285900
      8 C7          -2.1960    -0.0010     3.4550 c3         1 30U       0.266700
      9 C8          -2.8050    -0.0020     4.8340 ca         1 30U      -0.126300
     10 C9          -3.0850     1.1950     5.4660 ca         1 30U      -0.131500
     11 C10         -3.6440     1.1950     6.7300 ca         1 30U      -0.012500
     12 C11         -3.9240    -0.0030     7.3630 ca         1 30U      -0.082500
     13 C12         -3.6440    -1.2000     6.7290 ca         1 30U      -0.012500
     14 C13         -3.0910    -1.1990     5.4630 ca         1 30U      -0.131500
     15 S1          -4.6350    -0.0030     8.9750 s6         1 30U       1.027100
     16 O2          -4.3000    -1.2530     9.5610 o          1 30U      -0.655533
     17 O3          -4.2990     1.2470     9.5610 o          1 30U      -0.655533
     18 C14          2.0680    -0.0020     3.6450 ca         1 30U       0.598200
     19 N1           3.3920    -0.0030     3.5850 nb         1 30U      -0.679000
     20 C15          4.0330    -0.0020     2.4200 ca         1 30U       0.730900
     21 N2           3.4040    -0.0010     1.2600 nb         1 30U      -0.650000
     22 N3           5.4150    -0.0020     2.4240 nv         1 30U      -0.645500
     23 N4           1.4160    -0.0030     4.8600 nv         1 30U      -0.636500
     24 H1          -0.4530     0.0010    -0.9840 ha         1 30U       0.096000
     25 H2           1.8550     0.0000    -0.9660 ha         1 30U       0.115000
     26 H3          -1.7250    -0.0030     0.7920 ha         1 30U       0.137000
     27 H5          -2.5170    -0.8850     2.9180 h1         1 30U      -0.000300
     28 H4          -2.5170     0.8840     2.9190 h1         1 30U      -0.000300
     29 H6          -2.8660     2.1330     4.9700 ha         1 30U       0.091000
     30 H7          -3.8630     2.1330     7.2250 ha         1 30U       0.124000
     31 H8          -3.8650    -2.1390     7.2230 ha         1 30U       0.124000
     32 H9          -2.8720    -2.1370     4.9670 ha         1 30U       0.091000
     33 H10          5.9160    -0.8690     2.4220 hn         1 30U       0.274800
     34 H11          5.9160     0.8650     2.4290 hn         1 30U       0.274800
     35 H12          1.3360    -0.8520     5.3840 hn         1 30U       0.291300
     36 H13          1.0760     0.8560     5.2460 hn         1 30U       0.291300
     37 O4          -6.1470    -0.0030     8.8000 o          1 30U      -0.655533
@<TRIPOS>BOND
     1     1     2 ar  
     2     1     6 ar  
     3     1    24 1   
     4     2     3 ar  
     5     2    25 1   
     6     3     4 ar  
     7     3    21 ar  
     8     4     5 ar  
     9     4    18 ar  
    10     5     6 ar  
    11     5     7 1   
    12     6    26 1   
    13     7     8 1   
    14     8     9 1   
    15     8    27 1   
    16     8    28 1   
    17     9    10 ar  
    18     9    14 ar  
    19    10    11 ar  
    20    10    29 1   
    21    11    12 ar  
    22    11    30 1   
    23    12    13 ar  
    24    12    15 1   
    25    13    14 ar  
    26    13    31 1   
    27    14    32 1   
    28    15    16 1   
    29    15    17 1   
    30    15    37 1   
    31    18    19 ar  
    32    18    23 1   
    33    19    20 ar  
    34    20    21 ar  
    35    20    22 1   
    36    22    33 1   
    37    22    34 1   
    38    23    35 1   
    39    23    36 1   
@<TRIPOS>SUBSTRUCTURE
     1 30U         1 TEMP              0 ****  ****    0 ROOT
