@<TRIPOS>MOLECULE
molecule
   24    25     1     0     0
SMALL
bcc


@<TRIPOS>ATOM
      1 C4           0.0000     0.0000     0.0000 c          1 30W       0.616000
      2 C6          -2.5620    -0.0010     2.6120 ca         1 30W       0.159500
      3 C11          5.6410    -0.0020     2.2110 c3         1 30W      -0.167100
      4 C7          -1.7670    -0.0010     3.7700 ca         1 30W       0.384900
      5 C9          -4.0300    -0.0010     2.7310 c          1 30W       0.472400
      6 C10          4.1360    -0.0010     2.2650 c          1 30W       0.642100
      7 N1           1.4640    -0.0010     2.3480 nc         1 30W      -0.715700
      8 N3           1.3540     0.0000     0.0000 ns         1 30W      -0.495400
      9 O10          3.5680    -0.0020     3.3370 o          1 30W      -0.484100
     10 C2           2.0440     0.0000     1.1730 cd         1 30W       0.585500
     11 C8A          0.1270    -0.0010     2.4780 ca         1 30W       0.612000
     12 N8          -0.4550    -0.0010     3.6790 nb         1 30W      -0.648000
     13 N5          -1.9940    -0.0010     1.4090 nb         1 30W      -0.521000
     14 C4A         -0.6790    -0.0010     1.3110 ca         1 30W       0.160500
     15 O4          -0.6320     0.0050    -1.0390 o          1 30W      -0.560500
     16 H1           5.9830    -0.8860     1.6870 hc         1 30W       0.068700
     17 H2           5.9840     0.8830     1.6870 hc         1 30W       0.068700
     18 H3           6.0390    -0.0020     3.2180 hc         1 30W       0.068700
     19 H4          -2.2390    -0.0010     4.7450 h4         1 30W       0.038100
     20 H5          -4.4950    -0.0010     3.7090 h4         1 30W       0.010200
     21 H8           3.8880     0.0010     0.2400 hn         1 30W       0.331500
     22 H9           1.8510     0.0010    -0.8690 hn         1 30W       0.336500
     23 O9          -4.7180    -0.0010     1.7320 o          1 30W      -0.477100
     24 N2           3.4200     0.0000     1.1240 ns         1 30W      -0.484400
@<TRIPOS>BOND
     1     5     2 1
     2     2     4 ar
     3     2    13 ar
     4     4    12 ar
     5    13    14 ar
     6    12    11 ar
     7    14    11 ar
     8    14     1 1
     9    11     7 1
    10    15     1 2
    11     1     8 1
    12     7    10 2
    13     8    10 1
    14    10    24 1
    15     9     6 2
    16    24     6 1
    17     6     3 1
    18     3    16 1
    19     3    17 1
    20     3    18 1
    21     4    19 1
    22     5    20 1
    23    24    21 1
    24     8    22 1
    25     5    23 2
@<TRIPOS>SUBSTRUCTURE
     1 30W         1 TEMP              0 ****  ****    0 ROOT
