@<TRIPOS>MOLECULE
30W
   24    25     1     0     0
SMALL
bcc


@<TRIPOS>ATOM
      1 C4           0.0000     0.0000     0.0000 c          1 30W       0.520000
      2 C6          -2.5620    -0.0010     2.6120 ca         1 30W       0.081500
      3 C11          5.6410    -0.0020     2.2110 c3         1 30W      -0.064100
      4 C7          -1.7670    -0.0010     3.7700 ca         1 30W       0.379900
      5 C9          -4.0300    -0.0010     2.7310 c          1 30W       0.557400
      6 C10          4.1360    -0.0010     2.2650 c          1 30W       0.537100
      7 N1           1.4640    -0.0010     2.3480 nc         1 30W      -0.607700
      8 N3           1.3540     0.0000     0.0000 ns         1 30W      -0.044400
      9 O10          3.5680    -0.0020     3.3370 o          1 30W      -0.521100
     10 C2           2.0440     0.0000     1.1730 cd         1 30W       0.240500
     11 C8A          0.1270    -0.0010     2.4780 ca         1 30W       0.530000
     12 N8          -0.4550    -0.0010     3.6790 nb         1 30W      -0.547000
     13 N5          -1.9940    -0.0010     1.4090 nb         1 30W      -0.369000
     14 C4A         -0.6790    -0.0010     1.3110 ca         1 30W       0.094500
     15 O4          -0.6320     0.0050    -1.0390 o          1 30W      -0.606500
     16 H1           5.9830    -0.8860     1.6870 hc         1 30W       0.027033
     17 H2           5.9840     0.8830     1.6870 hc         1 30W       0.027033
     18 H3           6.0390    -0.0020     3.2180 hc         1 30W       0.027033
     19 H4          -2.2390    -0.0010     4.7450 h4         1 30W      -0.011900
     20 H5          -4.4950    -0.0010     3.7090 h4         1 30W      -0.033800
     21 H8           3.8880     0.0010     0.2400 hn         1 30W       0.170500
     22 H9           1.8510     0.0010    -0.8690 hn         1 30W       0.181500
     23 O9          -4.7180    -0.0010     1.7320 o          1 30W      -0.518100
     24 N2           3.4200     0.0000     1.1240 ns         1 30W      -0.048400
@<TRIPOS>BOND
     1     1     8 1   
     2     1    14 1   
     3     1    15 2   
     4     2     4 ar  
     5     2     5 1   
     6     2    13 ar  
     7     3     6 1   
     8     3    16 1   
     9     3    17 1   
    10     3    18 1   
    11     4    12 ar  
    12     4    19 1   
    13     5    20 1   
    14     5    23 2   
    15     6     9 2   
    16     6    24 1   
    17     7    10 2   
    18     7    11 1   
    19     8    10 1   
    20     8    22 1   
    21    10    24 1   
    22    11    12 ar  
    23    11    14 ar  
    24    13    14 ar  
    25    21    24 1   
@<TRIPOS>SUBSTRUCTURE
     1 30W         1 TEMP              0 ****  ****    0 ROOT
