@<TRIPOS>MOLECULE
molecule
   40    40     1     0     0
SMALL
bcc


@<TRIPOS>ATOM
      1 C10          0.0000     0.0000     0.0000 ca         1 30X      -0.172000
      2 C13         -0.7050    -0.0190     3.6430 cg         1 30X       0.231800
      3 C15          1.4070    -0.0120     2.3980 ca         1 30X      -0.128300
      4 C16          2.0900     0.0000     1.2040 ca         1 30X      -0.162000
      5 C17          2.1650    -0.0180     3.7000 c3         1 30X       0.671200
      6 C24         -0.8220     2.5380    -4.1110 c3         1 30X       0.059300
      7 C25          0.2460     0.4210    -5.0160 c3         1 30X       0.059300
      8 C1           0.5160    -1.4220    -2.4290 c3         1 30X      -0.127100
      9 C2           1.3580    -0.1450    -2.4700 c3         1 30X       0.163500
     10 C4           3.5430     0.1470    -1.2130 c3         1 30X       0.167800
     11 C5           3.9070     1.6320    -1.1750 c3         1 30X       0.620900
     12 F6           5.2990     1.7730    -1.2050 f          1 30X      -0.217967
     13 F7           3.3480     2.2770    -2.2840 f          1 30X      -0.217967
     14 F8           3.4060     2.2050    -0.0010 f          1 30X      -0.217967
     15 C9           1.3910     0.0000     0.0000 ca         1 30X       0.230600
     16 C11         -0.6910    -0.0010     1.1910 ca         1 30X      -0.050000
     17 C12          0.0090    -0.0060     2.4020 ca         1 30X      -0.021000
     18 N14         -1.2810    -0.0440     4.6220 n1         1 30X      -0.349800
     19 F18          1.8350     1.1240     4.4370 f          1 30X      -0.217633
     20 F19          1.8260    -1.1610     4.4330 f          1 30X      -0.217633
     21 F20          3.5400    -0.0230     3.4390 f          1 30X      -0.217633
     22 C21          0.4550     1.0450    -2.6700 c          1 30X       0.635100
     23 O22          0.1620     1.7490    -1.7280 o          1 30X      -0.577100
     24 N23         -0.0270     1.3270    -3.8970 n          1 30X      -0.485800
     25 H10         -0.4460     0.1870    -0.9690 ha         1 30X       0.173000
     26 H16          3.0420    -0.4000     1.5330 ha         1 30X       0.165000
     27 H24         -1.5810     2.0900    -3.4810 h1         1 30X       0.053700
     28 H24A        -0.2100     3.4040    -3.8890 h1         1 30X       0.053700
     29 H24B        -1.4480     2.5290    -4.9960 h1         1 30X       0.053700
     30 H25          0.9220     0.2880    -5.8520 h1         1 30X       0.053700
     31 H25A         0.5130    -0.3650    -4.3200 h1         1 30X       0.053700
     32 H25B        -0.7650     0.0950    -5.2320 h1         1 30X       0.053700
     33 H1          -0.0650    -1.4570    -1.5160 hc         1 30X       0.067700
     34 H1A         -0.1590    -1.3210    -3.2700 hc         1 30X       0.067700
     35 H1B          1.2970    -2.1700    -2.3590 hc         1 30X       0.067700
     36 H2           2.0640    -0.2050    -3.2890 h1         1 30X       0.080700
     37 H4           4.2170    -0.6650    -0.9690 h1         1 30X       0.077700
     38 H4A          3.6410    -0.0710    -2.2690 h1         1 30X       0.077700
     39 H11         -1.7730    -0.0040     1.1610 ha         1 30X       0.148000
     40 N3           2.0850     0.0010    -1.2060 nh         1 30X      -0.707000
@<TRIPOS>BOND
     1    15     1 ar  
     2     1    16 ar  
     3     1    25 1   
     4    17     2 1   
     5     2    18 3   
     6     4     3 ar  
     7     3     5 1   
     8     3    17 ar  
     9    15     4 ar  
    10     4    26 1   
    11    19     5 1   
    12     5    21 1   
    13     5    20 1   
    14     6    24 1   
    15     6    27 1   
    16     6    28 1   
    17     6    29 1   
    18    24     7 1   
    19     7    30 1   
    20     7    31 1   
    21     7    32 1   
    22     9     8 1   
    23     8    33 1   
    24     8    34 1   
    25     8    35 1   
    26    22     9 1   
    27    40     9 1   
    28     9    36 1   
    29    10    40 1   
    30    40    15 1   
    31    11    10 1   
    32    10    37 1   
    33    10    38 1   
    34    12    11 1   
    35    13    11 1   
    36    11    14 1   
    37    16    17 ar  
    38    16    39 1   
    39    24    22 1   
    40    23    22 2   
@<TRIPOS>SUBSTRUCTURE
     1 30X         1 TEMP              0 ****  ****    0 ROOT
