@<TRIPOS>MOLECULE
molecule
   44    45     1     0     0
SMALL
bcc


@<TRIPOS>ATOM
      1 O25          0.0000     0.0000     0.0000 oh         1 30Z      -0.514100
      2 C19          1.3600     0.0000     0.0000 ca         1 30Z       0.092600
      3 C18          2.0550     0.0000     1.1980 ca         1 30Z      -0.137500
      4 C20          2.0570    -0.0050    -1.2040 ca         1 30Z       0.081100
      5 O23          1.3790    -0.0100    -2.3840 oh         1 30Z      -0.512600
      6 C21          3.4430    -0.0060    -1.2000 ca         1 30Z      -0.158000
      7 C22          4.1290    -0.0000     0.0010 ca         1 30Z      -0.119000
      8 C17          3.4370    -0.0010     1.1960 ca         1 30Z      -0.079300
      9 C15          4.1910    -0.0010     2.5010 c3         1 30Z      -0.036100
     10 C14          4.4460    -1.4440     2.9430 c3         1 30Z      -0.066700
     11 C16          3.1110    -2.1280     3.2460 c3         1 30Z      -0.093600
     12 C12          5.3170    -1.4460     4.2010 c3         1 30Z      -0.066700
     13 C13          5.5720    -2.8890     4.6410 c3         1 30Z      -0.093600
     14 C11          6.6520    -0.7630     3.8970 c3         1 30Z      -0.036100
     15 C3           7.4610    -0.6550     5.1640 ca         1 30Z      -0.079300
     16 C2           8.3260    -1.6730     5.5180 ca         1 30Z      -0.119000
     17 C4           7.3400     0.4630     5.9660 ca         1 30Z      -0.137500
     18 C5           8.0820     0.5640     7.1310 ca         1 30Z       0.092600
     19 O9           7.9650     1.6640     7.9230 oh         1 30Z      -0.514100
     20 C6           8.9510    -0.4620     7.4910 ca         1 30Z       0.081100
     21 C1           9.0700    -1.5790     6.6790 ca         1 30Z      -0.158000
     22 O7           9.6820    -0.3690     8.6340 oh         1 30Z      -0.512600
     23 H25         -0.3140     0.8890    -0.0240 ho         1 30Z       0.423500
     24 H18          1.5140    -0.0010     2.1370 ha         1 30Z       0.145000
     25 H23          1.5220    -0.8320    -2.8250 ho         1 30Z       0.423000
     26 H21          3.9880    -0.0080    -2.1360 ha         1 30Z       0.140000
     27 H22          5.2130    -0.0010     0.0030 ha         1 30Z       0.135000
     28 H151         5.1370     0.5100     2.3720 hc         1 30Z       0.051700
     29 H152         3.6050     0.5090     3.2560 hc         1 30Z       0.051700
     30 H14          4.9540    -1.9800     2.1500 hc         1 30Z       0.056700
     31 H161         2.4880    -2.1140     2.3600 hc         1 30Z       0.038867
     32 H162         3.2910    -3.1540     3.5450 hc         1 30Z       0.038867
     33 H163         2.6100    -1.6010     4.0490 hc         1 30Z       0.038867
     34 H12          4.8090    -0.9100     4.9930 hc         1 30Z       0.056700
     35 H131         6.0510    -3.4330     3.8370 hc         1 30Z       0.038867
     36 H132         6.2150    -2.8920     5.5130 hc         1 30Z       0.038867
     37 H133         4.6290    -3.3630     4.8870 hc         1 30Z       0.038867
     38 H111         7.1990    -1.3480     3.1680 hc         1 30Z       0.051700
     39 H112         6.4680     0.2280     3.5010 hc         1 30Z       0.051700
     40 H2           8.4210    -2.5460     4.8850 ha         1 30Z       0.135000
     41 H4           6.6850     1.2740     5.6700 ha         1 30Z       0.145000
     42 H1           9.7460    -2.3790     6.9550 ha         1 30Z       0.140000
     43 H9           8.6060     2.3060     7.6660 ho         1 30Z       0.423500
     44 H7           9.3770    -1.0090     9.2550 ho         1 30Z       0.423000
@<TRIPOS>BOND
     1     1     2 1
     2     2     3 ar
     3     2     4 ar
     4     3     8 ar
     5     4     5 1
     6     4     6 ar
     7     6     7 ar
     8     7     8 ar
     9     8     9 1
    10     9    10 1
    11    10    11 1
    12    10    12 1
    13    12    13 1
    14    12    14 1
    15    14    15 1
    16    15    16 ar
    17    15    17 ar
    18    16    21 ar
    19    17    18 ar
    20    18    19 1
    21    18    20 ar
    22    20    21 ar
    23    20    22 1
    24     1    23 1
    25     3    24 1
    26     5    25 1
    27     6    26 1
    28     7    27 1
    29     9    28 1
    30     9    29 1
    31    10    30 1
    32    11    31 1
    33    11    32 1
    34    11    33 1
    35    12    34 1
    36    13    35 1
    37    13    36 1
    38    13    37 1
    39    14    38 1
    40    14    39 1
    41    16    40 1
    42    17    41 1
    43    21    42 1
    44    19    43 1
    45    22    44 1
@<TRIPOS>SUBSTRUCTURE
     1 30Z         1 TEMP              0 ****  ****    0 ROOT
