@<TRIPOS>MOLECULE
30Z
   44    45     1     0     0
SMALL
bcc


@<TRIPOS>ATOM
      1 O25         0.0650    0.3280   -0.1970 oh        1 30Z     -0.495100
      2 C19         1.4260    0.2790   -0.0130 ca        1 30Z      0.113100
      3 C18         1.8910    0.0430    1.2870 ca        1 30Z     -0.133000
      4 C20         2.3480    0.4520   -1.0670 ca        1 30Z      0.035600
      5 O23         1.8100    0.6790   -2.3180 oh        1 30Z     -0.517600
      6 C21         3.7220    0.3890   -0.8160 ca        1 30Z     -0.167000
      7 C22         4.1720    0.1540    0.4800 ca        1 30Z     -0.129500
      8 C17         3.2660   -0.0190    1.5330 ca        1 30Z     -0.071300
      9 C15         3.7700   -0.2570    2.9140 c3        1 30Z     -0.036600
     10 C14         4.2290   -1.7020    3.1170 c3        1 30Z     -0.059200
     11 C16         3.0210   -2.5890    3.3380 c3        1 30Z     -0.091600
     12 C12         5.2240   -1.7840    4.2790 c3        1 30Z     -0.059200
     13 C13         5.3440   -3.1910    4.8270 c3        1 30Z     -0.091600
     14 C11         6.6010   -1.2920    3.8310 c3        1 30Z     -0.036600
     15 C3          7.4410   -0.8520    4.9800 ca        1 30Z     -0.071300
     16 C2          8.4700   -1.6670    5.4630 ca        1 30Z     -0.129500
     17 C4          7.2000    0.3930    5.5720 ca        1 30Z     -0.133000
     18 C5          7.9910    0.8190    6.6450 ca        1 30Z      0.113100
     19 O9          7.7110    2.0500    7.1880 oh        1 30Z     -0.495100
     20 C6          9.0290   -0.0110    7.1230 ca        1 30Z      0.035600
     21 C1          9.2650   -1.2530    6.5300 ca        1 30Z     -0.167000
     22 O7          9.7640    0.4820    8.1830 oh        1 30Z     -0.517600
     23 H25        -0.1030    0.5060   -1.1360 ho        1 30Z      0.436500
     24 H18         1.1620   -0.0910    2.1000 ha        1 30Z      0.153500
     25 H23         2.5440    0.7980   -2.9370 ho        1 30Z      0.428000
     26 H21         4.4380    0.5260   -1.6390 ha        1 30Z      0.134000
     27 H22         5.2530    0.1050    0.6810 ha        1 30Z      0.135500
     28 H151        2.9680   -0.0200    3.6640 hc        1 30Z      0.050700
     29 H152        4.6230    0.4460    3.1150 hc        1 30Z      0.050700
     30 H14         4.7550   -2.0460    2.1810 hc        1 30Z      0.053700
     31 H161        2.2470   -2.3740    2.5600 hc        1 30Z      0.036700
     32 H162        3.3030   -3.6670    3.2660 hc        1 30Z      0.036700
     33 H163        2.5730   -2.4040    4.3440 hc        1 30Z      0.036700
     34 H12         4.8540   -1.1110    5.1040 hc        1 30Z      0.053700
     35 H131        6.1960   -3.2430    5.5500 hc        1 30Z      0.036700
     36 H132        5.5340   -3.9210    4.0050 hc        1 30Z      0.036700
     37 H133        4.4100   -3.4890    5.3610 hc        1 30Z      0.036700
     38 H111        6.4840   -0.4320    3.1180 hc        1 30Z      0.050700
     39 H112        7.1190   -2.1150    3.2700 hc        1 30Z      0.050700
     40 H2          8.6560   -2.6460    4.9970 ha        1 30Z      0.135500
     41 H4          6.3940    1.0450    5.2060 ha        1 30Z      0.153500
     42 H1         10.0730   -1.8970    6.9040 ha        1 30Z      0.134000
     43 H9          8.3350    2.2050    7.9140 ho        1 30Z      0.436500
     44 H7         10.4320   -0.1800    8.4110 ho        1 30Z      0.428000
@<TRIPOS>BOND
     1    1    2 1   
     2    1   23 1   
     3    2    3 ar  
     4    2    4 ar  
     5    3    8 ar  
     6    3   24 1   
     7    4    5 1   
     8    4    6 ar  
     9    5   25 1   
    10    6    7 ar  
    11    6   26 1   
    12    7    8 ar  
    13    7   27 1   
    14    8    9 1   
    15    9   10 1   
    16    9   28 1   
    17    9   29 1   
    18   10   11 1   
    19   10   12 1   
    20   10   30 1   
    21   11   31 1   
    22   11   32 1   
    23   11   33 1   
    24   12   13 1   
    25   12   14 1   
    26   12   34 1   
    27   13   35 1   
    28   13   36 1   
    29   13   37 1   
    30   14   15 1   
    31   14   38 1   
    32   14   39 1   
    33   15   16 ar  
    34   15   17 ar  
    35   16   21 ar  
    36   16   40 1   
    37   17   18 ar  
    38   17   41 1   
    39   18   19 1   
    40   18   20 ar  
    41   19   43 1   
    42   20   21 ar  
    43   20   22 1   
    44   21   42 1   
    45   22   44 1   
@<TRIPOS>SUBSTRUCTURE
     1 30Z         1 TEMP              0 ****  ****    0 ROOT
