@<TRIPOS>MOLECULE
molecule
   59    62     1     0     0
SMALL
bcc


@<TRIPOS>ATOM
      1 C23          0.0000     0.0000     0.0000 ca         1 310      -0.137000
      2 C22          1.3960     0.0000     0.0000 ca         1 310      -0.012000
      3 C21         -2.6670    -1.6490    -3.4050 c2         1 310       0.513800
      4 C20         -0.3760    -1.3690    -2.8950 c          1 310       0.617100
      5 C24         -0.6870    -0.0000     1.1960 ca         1 310      -0.137000
      6 C26          1.3880     0.0010     2.4030 ca         1 310      -0.111000
      7 C27          2.0880     0.0000     1.2140 ca         1 310       0.047400
      8 C18          2.1380    -0.0010    -1.2770 cc         1 310      -0.072300
      9 C10          4.2040    -1.7830    -6.5870 ca         1 310      -0.172000
     10 C7           1.1020    -2.8990    -9.3730 ca         1 310      -0.155000
     11 C5           1.9590    -5.0690    -8.7630 ca         1 310      -0.155000
     12 C6           2.1010    -3.6860    -8.8080 ca         1 310       0.127100
     13 C1          -2.4620    -4.6550   -11.0070 c3         1 310      -0.190100
     14 C3          -0.1730    -4.8750    -9.8450 ca         1 310      -0.186600
     15 C4           0.8350    -5.6630    -9.2750 ca         1 310      -0.073500
     16 C11          4.1100    -1.1520    -5.3660 ca         1 310      -0.094000
     17 C12          2.9190    -1.2150    -4.6390 ca         1 310      -0.037000
     18 C13          1.8280    -1.9200    -5.1540 ca         1 310      -0.094000
     19 C14          1.9320    -2.5480    -6.3770 ca         1 310      -0.172000
     20 C15          2.8130    -0.5400    -3.3290 cc         1 310      -0.053300
     21 C16          3.5790     0.5070    -2.9030 cd         1 310      -0.163000
     22 C17          3.1560     0.8430    -1.6130 cd         1 310      -0.140000
     23 O1          -1.5040    -6.7120   -10.3560 o          1 310      -0.517100
     24 C8          -0.0260    -3.4840    -9.8880 ca         1 310      -0.073500
     25 C9           3.1180    -2.4830    -7.0960 ca         1 310       0.145100
     26 N1           1.9280    -0.8550    -2.3300 na         1 310      -0.041100
     27 C19          0.9260    -1.9240    -2.3790 c3         1 310      -0.012700
     28 O3          -0.4600    -0.1970    -3.1920 o          1 310      -0.445100
     29 N2          -1.4470    -2.1760    -3.0250 ns         1 310      -0.488400
     30 N3          -2.7590    -0.3930    -3.7340 n2         1 310      -0.670100
     31 N4          -3.7830    -2.4500    -3.4330 nz         1 310      -0.809600
     32 C25          0.0040     0.0010     2.3950 ca         1 310      -0.110000
     33 Cl1          3.8240    -0.0000     1.2260 cl         1 310      -0.076400
     34 H23         -0.5430    -0.0000    -0.9380 ha         1 310       0.127000
     35 H24         -1.7700    -0.0000     1.1970 ha         1 310       0.125000
     36 H26          1.9230     0.0020     3.3460 ha         1 310       0.158000
     37 H10          5.1280    -1.7340    -7.1510 ha         1 310       0.147500
     38 H7           1.2160    -1.8220    -9.4060 ha         1 310       0.154000
     39 H5           2.7400    -5.6780    -8.3220 ha         1 310       0.154000
     40 H1          -2.8290    -3.9530   -10.2680 hc         1 310       0.062367
     41 H1A         -3.2770    -5.2830   -11.3450 hc         1 310       0.062367
     42 H1B         -2.0520    -4.1120   -11.8490 hc         1 310       0.062367
     43 H4           0.7260    -6.7400    -9.2390 ha         1 310       0.152000
     44 H11          4.9590    -0.6070    -4.9700 ha         1 310       0.127500
     45 H13          0.9020    -1.9710    -4.5940 ha         1 310       0.127500
     46 H14          1.0860    -3.0950    -6.7770 ha         1 310       0.147500
     47 H16          4.3730     0.9880    -3.4620 ha         1 310       0.164000
     48 H17          3.5620     1.6340    -0.9930 ha         1 310       0.171000
     49 H8          -0.8030    -2.8690   -10.3270 ha         1 310       0.152000
     50 H19          1.2700    -2.7110    -3.0400 h1         1 310       0.098200
     51 H19A         0.7790    -2.3270    -1.3850 h1         1 310       0.098200
     52 HN2         -1.3620    -3.1550    -2.8370 hn         1 310       0.339500
     53 HN3         -3.6420    -0.0100    -4.0090 hn         1 310       0.440400
     54 HN4         -3.8860    -2.8470    -4.3460 hn         1 310       0.467800
     55 HN4A        -4.5920    -1.9030    -3.2150 hn         1 310       0.467800
     56 H25         -0.5410     0.0010     3.3310 ha         1 310       0.145000
     57 O2           3.2150    -3.1040    -8.3000 os         1 310      -0.239200
     58 C2          -1.3790    -5.5070   -10.3950 c          1 310       0.569700
     59 H43         -3.6880    -3.1800    -2.7560 hn         1 310       0.467800
@<TRIPOS>BOND
     1     1     2 ar  
     2     1     5 ar  
     3     2     7 ar  
     4     2     8 1   
     5     3    29 1   
     6     3    30 2   
     7     3    31 1   
     8     4    27 1   
     9     4    28 2   
    10     4    29 1   
    11     5    32 ar  
    12     6     7 ar  
    13     6    32 ar  
    14     7    33 1   
    15     8    22 2   
    16     8    26 1   
    17     9    16 ar  
    18     9    25 ar  
    19    10    12 ar  
    20    10    24 ar  
    21    11    12 ar  
    22    11    15 ar  
    23    12    57 1   
    24    13    58 1   
    25    58    14 1   
    26    58    23 2   
    27    14    15 ar  
    28    14    24 ar  
    29    16    17 ar  
    30    17    18 ar  
    31    17    20 1   
    32    18    19 ar  
    33    19    25 ar  
    34    20    21 2   
    35    20    26 1   
    36    21    22 1   
    37    57    25 1   
    38    26    27 1   
    39     1    34 1   
    40     5    35 1   
    41     6    36 1   
    42     9    37 1   
    43    10    38 1   
    44    11    39 1   
    45    13    40 1   
    46    13    41 1   
    47    13    42 1   
    48    15    43 1   
    49    16    44 1   
    50    18    45 1   
    51    19    46 1   
    52    21    47 1   
    53    22    48 1   
    54    24    49 1   
    55    27    50 1   
    56    27    51 1   
    57    29    52 1   
    58    30    53 1   
    59    31    54 1   
    60    31    55 1   
    61    32    56 1   
    62    59    31 1   
@<TRIPOS>SUBSTRUCTURE
     1 310         1 TEMP              0 ****  ****    0 ROOT
