@<TRIPOS>MOLECULE
molecule
   47    49     1     0     0
SMALL
bcc


@<TRIPOS>ATOM
      1 C13          0.0000     0.0000     0.0000 c3         1 311       0.078000
      2 C18         -2.5260     2.3230    -5.3920 ca         1 311       0.127900
      3 C17         -1.8320    -1.8670    -1.0980 ca         1 311       0.383800
      4 C16         -2.2140    -0.4920    -2.9180 cp         1 311       0.471800
      5 C15         -2.1480     0.8590    -3.5260 cp         1 311      -0.130500
      6 C19         -1.3460    -2.0230     0.2920 c          1 311       0.577600
      7 C20          1.5320     0.0000     0.0000 c3         1 311      -0.088000
      8 C11          2.0380     0.0000     1.4440 c3         1 311      -0.071400
      9 C12          0.0240    -1.2790     2.1800 c3         1 311       0.105000
     10 C2           2.0430     1.2490    -0.7210 c3         1 311      -0.081600
     11 C3           2.0420    -1.2500    -0.7200 c3         1 311      -0.081600
     12 C4          -2.7880    -2.8160    -3.0840 ca         1 311      -0.099000
     13 C5          -2.7250    -1.5600    -3.6610 ca         1 311      -0.223300
     14 C6          -2.3350    -2.9710    -1.7820 ca         1 311      -0.192300
     15 C7          -1.5800     3.1870    -3.3640 ca         1 311      -0.112000
     16 C8          -1.6410     1.9300    -2.7940 ca         1 311      -0.105000
     17 C9          -2.5910     1.0620    -4.8310 ca         1 311      -0.151000
     18 C10          1.5550    -1.2650     2.1560 c3         1 311      -0.101400
     19 C14         -2.0200     3.3840    -4.6580 ca         1 311      -0.107300
     20 N21         -1.7900    -0.6750    -1.6790 nb         1 311      -0.679000
     21 N22         -0.4730    -1.1330     0.8050 n          1 311      -0.463800
     22 O23         -1.7330    -2.9540     0.9710 o          1 311      -0.612100
     23 F24         -2.9500     2.5200    -6.6600 f          1 311      -0.138900
     24 H13         -0.3620     0.9260     0.4300 h1         1 311       0.080700
     25 H13A        -0.3620    -0.1010    -1.0160 h1         1 311       0.080700
     26 H11          3.1210     0.0220     1.4450 hc         1 311       0.042700
     27 H11A         1.6540     0.8720     1.9590 hc         1 311       0.042700
     28 H12         -0.3370    -0.4560     2.7850 h1         1 311       0.061700
     29 H12A        -0.3230    -2.2190     2.5930 h1         1 311       0.061700
     30 H1          -2.9450     5.0670    -5.5780 hc         1 311       0.049700
     31 H1A         -1.3010     4.7330    -6.1410 hc         1 311       0.049700
     32 H1B         -1.5600     5.4600    -4.5490 hc         1 311       0.049700
     33 H2           3.1110     1.3430    -0.5670 hc         1 311       0.036367
     34 H2A          1.8370     1.1640    -1.7810 hc         1 311       0.036367
     35 H2B          1.5420     2.1240    -0.3250 hc         1 311       0.036367
     36 H3           1.9430    -1.1160    -1.7900 hc         1 311       0.036367
     37 H3A          3.0850    -1.4090    -0.4710 hc         1 311       0.036367
     38 H3B          1.4610    -2.1090    -0.4070 hc         1 311       0.036367
     39 H4          -3.1820    -3.6600    -3.6370 ha         1 311       0.146000
     40 H5          -3.0710    -1.4060    -4.6760 ha         1 311       0.145000
     41 H6          -2.3720    -3.9420    -1.3020 ha         1 311       0.165000
     42 H7          -1.1850     4.0200    -2.7940 ha         1 311       0.141000
     43 H8          -1.2950     1.7780    -1.7790 ha         1 311       0.155000
     44 H9          -2.9860     0.2320    -5.4050 ha         1 311       0.146000
     45 H10          1.9150    -2.1370     1.6240 hc         1 311       0.051200
     46 H10A         1.9320    -1.2730     3.1710 hc         1 311       0.051200
     47 C1          -1.9520     4.7570    -5.2750 c3         1 311      -0.046800
@<TRIPOS>BOND
     1     1     7 1
     2     1    21 1
     3     2    17 ar
     4     2    19 ar
     5     2    23 1
     6     3     6 1
     7     3    14 ar
     8     3    20 ar
     9     4     5 1
    10     4    13 ar
    11     4    20 ar
    12     5    16 ar
    13     5    17 ar
    14     6    21 1
    15     6    22 2
    16     7     8 1
    17     7    10 1
    18     7    11 1
    19     8    18 1
    20     9    18 1
    21     9    21 1
    22    47    19 1
    23    12    13 ar
    24    12    14 ar
    25    15    16 ar
    26    15    19 ar
    27     1    24 1
    28     1    25 1
    29     8    26 1
    30     8    27 1
    31     9    28 1
    32     9    29 1
    33    47    30 1
    34    47    31 1
    35    47    32 1
    36    10    33 1
    37    10    34 1
    38    10    35 1
    39    11    36 1
    40    11    37 1
    41    11    38 1
    42    12    39 1
    43    13    40 1
    44    14    41 1
    45    15    42 1
    46    16    43 1
    47    17    44 1
    48    18    45 1
    49    18    46 1
@<TRIPOS>SUBSTRUCTURE
     1 311         1 TEMP              0 ****  ****    0 ROOT
