@<TRIPOS>MOLECULE
311
   47    49     1     0     0
SMALL
bcc


@<TRIPOS>ATOM
      1 C13          0.0000     0.0000     0.0000 c3         1 311      -0.030000
      2 C18         -2.5260     2.3230    -5.3920 ca         1 311       0.102900
      3 C17         -1.8320    -1.8670    -1.0980 ca         1 311       0.323800
      4 C16         -2.2140    -0.4920    -2.9180 cp         1 311       0.423800
      5 C15         -2.1480     0.8590    -3.5260 cp         1 311      -0.137500
      6 C19         -1.3460    -2.0230     0.2920 c          1 311       0.496600
      7 C20          1.5320     0.0000     0.0000 c3         1 311      -0.081000
      8 C11          2.0380     0.0000     1.4440 c3         1 311      -0.022400
      9 C12          0.0240    -1.2790     2.1800 c3         1 311       0.042000
     10 C2           2.0430     1.2490    -0.7210 c3         1 311       0.004400
     11 C3           2.0420    -1.2500    -0.7200 c3         1 311       0.004400
     12 C4          -2.7880    -2.8160    -3.0840 ca         1 311      -0.073000
     13 C5          -2.7250    -1.5600    -3.6610 ca         1 311      -0.195300
     14 C6          -2.3350    -2.9710    -1.7820 ca         1 311      -0.152300
     15 C7          -1.5800     3.1870    -3.3640 ca         1 311      -0.082000
     16 C8          -1.6410     1.9300    -2.7940 ca         1 311      -0.086000
     17 C9          -2.5910     1.0620    -4.8310 ca         1 311      -0.122000
     18 C10          1.5550    -1.2650     2.1560 c3         1 311      -0.048400
     19 C14         -2.0200     3.3840    -4.6580 ca         1 311      -0.107300
     20 N21         -1.7900    -0.6750    -1.6790 nb         1 311      -0.547000
     21 N22         -0.4730    -1.1330     0.8050 n          1 311      -0.107800
     22 O23         -1.7330    -2.9540     0.9710 o          1 311      -0.656100
     23 F24         -2.9500     2.5200    -6.6600 f          1 311      -0.126900
     24 H13         -0.3620     0.9260     0.4300 h1         1 311       0.064200
     25 H13A        -0.3620    -0.1010    -1.0160 h1         1 311       0.064200
     26 H11          3.1210     0.0220     1.4450 hc         1 311       0.019200
     27 H11A         1.6540     0.8720     1.9590 hc         1 311       0.019200
     28 H12         -0.3370    -0.4560     2.7850 h1         1 311       0.035700
     29 H12A        -0.3230    -2.2190     2.5930 h1         1 311       0.035700
     30 H1          -2.9450     5.0670    -5.5780 hc         1 311       0.013700
     31 H1A         -1.3010     4.7330    -6.1410 hc         1 311       0.013700
     32 H1B         -1.5600     5.4600    -4.5490 hc         1 311       0.013700
     33 H2           3.1110     1.3430    -0.5670 hc         1 311       0.007367
     34 H2A          1.8370     1.1640    -1.7810 hc         1 311       0.007367
     35 H2B          1.5420     2.1240    -0.3250 hc         1 311       0.007367
     36 H3           1.9430    -1.1160    -1.7900 hc         1 311       0.007367
     37 H3A          3.0850    -1.4090    -0.4710 hc         1 311       0.007367
     38 H3B          1.4610    -2.1090    -0.4070 hc         1 311       0.007367
     39 H4          -3.1820    -3.6600    -3.6370 ha         1 311       0.114000
     40 H5          -3.0710    -1.4060    -4.6760 ha         1 311       0.124000
     41 H6          -2.3720    -3.9420    -1.3020 ha         1 311       0.137000
     42 H7          -1.1850     4.0200    -2.7940 ha         1 311       0.112000
     43 H8          -1.2950     1.7780    -1.7790 ha         1 311       0.128000
     44 H9          -2.9860     0.2320    -5.4050 ha         1 311       0.125000
     45 H10          1.9150    -2.1370     1.6240 hc         1 311       0.025200
     46 H10A         1.9320    -1.2730     3.1710 hc         1 311       0.025200
     47 C1          -1.9520     4.7570    -5.2750 c3         1 311       0.065200
@<TRIPOS>BOND
     1     1     7 1   
     2     1    21 1   
     3     1    24 1   
     4     1    25 1   
     5     2    17 ar  
     6     2    19 ar  
     7     2    23 1   
     8     3     6 1   
     9     3    14 ar  
    10     3    20 ar  
    11     4     5 1   
    12     4    13 ar  
    13     4    20 ar  
    14     5    16 ar  
    15     5    17 ar  
    16     6    21 1   
    17     6    22 2   
    18     7     8 1   
    19     7    10 1   
    20     7    11 1   
    21     8    18 1   
    22     8    26 1   
    23     8    27 1   
    24     9    18 1   
    25     9    21 1   
    26     9    28 1   
    27     9    29 1   
    28    10    33 1   
    29    10    34 1   
    30    10    35 1   
    31    11    36 1   
    32    11    37 1   
    33    11    38 1   
    34    12    13 ar  
    35    12    14 ar  
    36    12    39 1   
    37    13    40 1   
    38    14    41 1   
    39    15    16 ar  
    40    15    19 ar  
    41    15    42 1   
    42    16    43 1   
    43    17    44 1   
    44    18    45 1   
    45    18    46 1   
    46    19    47 1   
    47    30    47 1   
    48    31    47 1   
    49    32    47 1   
@<TRIPOS>SUBSTRUCTURE
     1 311         1 TEMP              0 ****  ****    0 ROOT
