@<TRIPOS>MOLECULE
molecule
   56    59     1     0     0
SMALL
bcc


@<TRIPOS>ATOM
      1 C1           0.0000     0.0000     0.0000 ca         1 312      -0.008900
      2 C2           1.4000     0.0000     0.0000 ca         1 312      -0.207000
      3 C3           2.0940     0.0000     1.1760 ca         1 312      -0.091000
      4 C4           1.4120     0.0010     2.3870 ca         1 312      -0.101000
      5 C5           0.0050     0.0010     2.4070 ca         1 312       0.001000
      6 C6          -0.6990     0.0010     1.2020 ca         1 312      -0.150000
      7 C7          -0.7380     0.0010    -1.2810 ce         1 312      -0.218200
      8 N1          -0.0700     0.0000    -2.4340 nz         1 312      -0.579600
      9 N2          -2.0690     0.0010    -1.2820 nv         1 312      -0.602100
     10 N3           1.8150     0.0010     3.7070 na         1 312      -0.224600
     11 N4          -0.3780    -0.0040     3.7080 nc         1 312      -0.316600
     12 C8           0.6830     0.0020     4.4780 cc         1 312       0.200500
     13 C1'          0.6610     0.0020     5.9550 cd         1 312      -0.078000
     14 C2'         -0.2770     0.7750     6.6420 cd         1 312      -0.016000
     15 C3'         -0.2990     0.7750     8.0210 cc         1 312      -0.024200
     16 CVX         -1.3170     1.6110     8.7550 c3         1 312      -0.083500
     17 CWX         -2.7040     1.1690     8.3660 c          1 312       0.898600
     18 OXX         -2.8530     0.2590     7.5670 o          1 312      -0.579300
     19 OYX         -3.6780     1.7210     8.8490 o          1 312      -0.579300
     20 C6X         -1.1290     3.0840     8.3840 c3         1 312      -0.164400
     21 C7X         -2.0620     3.9320     9.2080 c          1 312       0.874600
     22 O8X         -2.8440     3.3830    10.0530 o          1 312      -0.732800
     23 O9X         -2.0720     5.1980     9.0600 o          1 312      -0.732800
     24 C4'          0.6060     0.0130     8.7350 cc         1 312      -0.084000
     25 C5'          1.5500    -0.7630     8.0670 cd         1 312      -0.067200
     26 C6'          1.5850    -0.7670     6.6710 c          1 312       0.481100
     27 O6'          2.5020    -1.5200     6.0130 o          1 312      -0.611100
     28 C1B          2.5210    -1.5790     8.8370 ca         1 312      -0.056800
     29 C2B          3.8880    -1.2950     8.7670 ca         1 312       0.151100
     30 C3B          4.7870    -2.0620     9.4900 ca         1 312      -0.231000
     31 C4B          4.3340    -3.1070    10.2730 ca         1 312      -0.094000
     32 C5B          2.9820    -3.3940    10.3390 ca         1 312      -0.171000
     33 C6B          2.0750    -2.6380     9.6250 ca         1 312      -0.075000
     34 O2B          4.3320    -0.2670     7.9990 os         1 312      -0.277900
     35 CME          5.7540    -0.2300     8.1400 c3         1 312       0.106700
     36 HC2          1.9380    -0.0010    -0.9410 ha         1 312       0.084000
     37 HC3          3.1770    -0.0000     1.1650 ha         1 312       0.108000
     38 HC6         -1.7820     0.0010     1.2040 ha         1 312       0.134000
     39 HH11        -0.7190     0.0000    -3.1960 hn         1 312       0.366800
     40 HH12         0.5060     0.8170    -2.4860 hn         1 312       0.366800
     41 HH21        -2.5690     0.0020    -2.1500 hn         1 312       0.257200
     42 HH22        -2.5710     0.0010    -0.4160 hn         1 312       0.257200
     43 HN3          2.7590     0.0050     4.0390 hn         1 312       0.310700
     44 HC2'        -0.9880     1.3780     6.0900 ha         1 312       0.177000
     45 H31B        -1.1840     1.4870     9.8230 hc         1 312       0.098700
     46 H42A        -1.3480     3.2230     7.3330 hc         1 312       0.065700
     47 H42B        -0.1050     3.3780     8.5820 hc         1 312       0.065700
     48 HC4'         0.5840     0.0230     9.8180 ha         1 312       0.143000
     49 H3B          5.8470    -1.8430     9.4410 ha         1 312       0.135000
     50 H4B          5.0400    -3.7040    10.8360 ha         1 312       0.120000
     51 H5B          2.6340    -4.2160    10.9530 ha         1 312       0.126000
     52 H6B          1.0170    -2.8660     9.6790 ha         1 312       0.144000
     53 HME1         6.0090    -0.0700     9.1810 h1         1 312       0.039367
     54 HME2         6.1550     0.5790     7.5410 h1         1 312       0.039367
     55 HME3         6.1750    -1.1700     7.8050 h1         1 312       0.039367
     56 H13          0.4990    -0.8210    -2.4900 hn         1 312       0.366800
@<TRIPOS>BOND
     1     1     2 ar  
     2     1     6 ar  
     3     1     7 1   
     4     2     3 ar  
     5     2    36 1   
     6     3     4 ar  
     7     3    37 1   
     8     4     5 ar  
     9     4    10 2   
    10     5     6 ar  
    11     5    11 2   
    12     6    38 1   
    13     7     8 1   
    14     7     9 2   
    15     8    39 1   
    16     8    40 1   
    17     9    41 1   
    18     9    42 1   
    19    10    12 1   
    20    10    43 1   
    21    11    12 1   
    22    12    13 2   
    23    13    14 1   
    24    13    26 1   
    25    14    15 2   
    26    14    44 1   
    27    15    16 1   
    28    15    24 1   
    29    16    17 1   
    30    16    20 1   
    31    16    45 1   
    32    17    18 1   
    33    17    19 1   
    34    20    21 1   
    35    20    46 1   
    36    20    47 1   
    37    21    22 1   
    38    21    23 1   
    39    24    25 2   
    40    24    48 1   
    41    25    26 1   
    42    25    28 1   
    43    26    27 2   
    44    28    29 ar  
    45    28    33 ar  
    46    29    30 ar  
    47    29    34 1   
    48    30    31 ar  
    49    30    49 1   
    50    31    32 ar  
    51    31    50 1   
    52    32    33 ar  
    53    32    51 1   
    54    33    52 1   
    55    34    35 1   
    56    35    53 1   
    57    35    54 1   
    58    35    55 1   
    59    56     8 1   
@<TRIPOS>SUBSTRUCTURE
     1 312         1 TEMP              0 ****  ****    0 ROOT
