@<TRIPOS>MOLECULE
molecule
   16    15     1     0     0
SMALL
bcc


@<TRIPOS>ATOM
      1 O3           0.0000     0.0000     0.0000 o          1 313      -0.864300
      2 C2           1.3430     0.0000     0.0000 c          1 313       0.901600
      3 O1           1.9470     0.0000     1.0460 o          1 313      -0.864300
      4 C4           2.0960     0.0000    -1.3050 c3         1 313      -0.049600
      5 S5           3.8760     0.0010    -0.9760 s6         1 313      -0.538200
      6 C7           3.7100     1.5680    -0.0850 c3         1 313      -0.073800
      7 C6           5.6580     0.0300    -0.6620 c3         1 313      -0.073800
      8 H4           1.5110     0.5110    -2.0600 h1         1 313      -0.105300
      9 H4A          3.0430     0.5110    -1.1760 h1         1 313      -0.105300
     10 H7           3.2840     2.3150    -0.7450 h1         1 313       0.050700
     11 H7A          3.0600     1.4290     0.7710 h1         1 313       0.050700
     12 H7B          4.6860     1.8970     0.2510 h1         1 313       0.050700
     13 H6           5.9330    -0.8330    -0.0670 h1         1 313       0.050700
     14 H6A          5.9160     0.9350    -0.1260 h1         1 313       0.050700
     15 H6B          6.1910     0.0030    -1.6050 h1         1 313       0.050700
     16 HS5          4.0830     0.0020     0.3350 hs         1 313       0.469800
@<TRIPOS>BOND
     1     2     1 1   
     2     4     2 1   
     3     3     2 1   
     4     4     5 1   
     5     4     8 1   
     6     4     9 1   
     7     6     5 1   
     8     5     7 1   
     9     6    10 1   
    10     6    11 1   
    11     6    12 1   
    12     7    13 1   
    13     7    14 1   
    14     7    15 1   
    15     5    16 1   
@<TRIPOS>SUBSTRUCTURE
     1 313         1 TEMP              0 ****  ****    0 ROOT
