@<TRIPOS>MOLECULE
313
   16    15     1     0     0
SMALL
bcc


@<TRIPOS>ATOM
      1 O3          1.2410    0.2250    0.8550 o         1 313     -0.847300
      2 C2          2.0980   -0.5530    0.3450 c         1 313      0.924600
      3 O1          2.6510   -1.5030    0.9720 o         1 313     -0.847300
      4 C4          2.5020   -0.3220   -1.1190 c3        1 313     -0.147600
      5 S5          3.8500    0.7680   -1.2350 s6        1 313     -0.489200
      6 C7          3.3980    2.3210   -0.5850 c3        1 313     -0.084300
      7 C6          5.2330    0.0670   -0.4390 c3        1 313     -0.084300
      8 H4          1.6250    0.0960   -1.6640 h1        1 313      0.058700
      9 H4A         2.7660   -1.3050   -1.5700 h1        1 313      0.058700
     10 H7          2.9530    2.9690   -1.3680 h1        1 313      0.060033
     11 H7A         4.2790    2.8370   -0.1500 h1        1 313      0.060033
     12 H7B         2.6360    2.1610    0.2170 h1        1 313      0.060033
     13 H6          5.8230   -0.5600   -1.1380 h1        1 313      0.060033
     14 H6A         5.8910    0.8580   -0.0240 h1        1 313      0.060033
     15 H6B         4.8690   -0.5800    0.3970 h1        1 313      0.060033
     16 HS5         4.1050    0.8920   -2.5180 hs        1 313      0.097800
@<TRIPOS>BOND
     1    1    2 1   
     2    2    3 1   
     3    2    4 1   
     4    4    5 1   
     5    4    8 1   
     6    4    9 1   
     7    5    6 1   
     8    5    7 1   
     9    5   16 1   
    10    6   10 1   
    11    6   11 1   
    12    6   12 1   
    13    7   13 1   
    14    7   14 1   
    15    7   15 1   
@<TRIPOS>SUBSTRUCTURE
     1 313         1 TEMP              0 ****  ****    0 ROOT
