@<TRIPOS>MOLECULE
molecule
   89    92     1     0     0
SMALL
bcc


@<TRIPOS>ATOM
      1 F1           0.0000     0.0000     0.0000 f          1 314      -0.138900
      2 F2           3.0920    -0.0020    -3.5890 f          1 314      -0.138900
      3 C1          -0.1710    -4.5630     3.3440 ca         1 314      -0.103000
      4 C2          -0.1560    -4.5320     1.9470 ca         1 314      -0.144600
      5 C3           0.8960    -3.9110     1.2780 ca         1 314      -0.021000
      6 C4           1.9280    -3.3240     2.0080 ca         1 314      -0.150600
      7 C5           1.9010    -3.3630     3.4040 ca         1 314      -0.093000
      8 C6           0.8550    -3.9790     4.0610 ca         1 314      -0.102300
      9 N1          -1.6980    -6.3850     1.5180 n          1 314      -0.487800
     10 O1          -1.7600    -4.5640     0.2480 o          1 314      -0.591100
     11 C8          -2.6960    -7.0580     0.6830 c3         1 314       0.099500
     12 C9          -1.1820    -7.0460     2.7190 c3         1 314       0.099500
     13 C10         -2.1660    -6.8490     3.8730 c3         1 314      -0.109900
     14 C11         -1.5660    -7.4200     5.1590 c3         1 314      -0.093600
     15 C12         -1.9870    -7.8870    -0.3900 c3         1 314      -0.109900
     16 C13         -3.0290    -8.5910    -1.2620 c3         1 314      -0.093600
     17 C14          0.8330    -4.0160     5.5670 c3         1 314      -0.046800
     18 N2           4.0460    -2.0970     2.0130 ns         1 314      -0.584900
     19 C16          5.1570    -1.4420     1.3170 c3         1 314       0.121700
     20 C17          6.3950    -1.4450     2.2170 c3         1 314       0.136100
     21 O3           6.1450    -0.6400     3.3730 oh         1 314      -0.604800
     22 C19          3.6300     0.0000     0.0000 ca         1 314      -0.017300
     23 C20          2.3250     0.0000     0.4570 ca         1 314      -0.174000
     24 C21          1.2750     0.0000    -0.4460 ca         1 314       0.165400
     25 C22          1.5330    -0.0000    -1.8060 ca         1 314      -0.208000
     26 C23          2.8400    -0.0010    -2.2620 ca         1 314       0.165400
     27 C24          3.8880     0.0050    -1.3570 ca         1 314      -0.174000
     28 C25          7.5870    -0.8740     1.4470 c3         1 314       0.149500
     29 C26          8.8240    -0.8760     2.3470 c3         1 314      -0.115400
     30 C27         10.0190    -0.3230     1.5660 c3         1 314      -0.063700
     31 C28         10.2340    -1.1720     0.3100 c3         1 314      -0.124400
     32 C29          8.9560    -1.1610    -0.5320 c3         1 314       0.157800
     33 N3           7.8420    -1.7010     0.2600 n7         1 314      -0.810200
     34 C30         11.2730    -0.3790     2.4410 c3         1 314      -0.031100
     35 C31         12.4210     0.2770     1.7170 ca         1 314      -0.083300
     36 C32         12.6530     1.6300     1.8730 ca         1 314      -0.126500
     37 C33         13.7060     2.2310     1.2100 ca         1 314      -0.125500
     38 C34         14.5270     1.4790     0.3900 ca         1 314      -0.130000
     39 C35         14.2940     0.1260     0.2340 ca         1 314      -0.125500
     40 C36         13.2440    -0.4760     0.9020 ca         1 314      -0.126500
     41 H1          -0.9880    -5.0450     3.8650 ha         1 314       0.153000
     42 H3           0.9120    -3.8840     0.1950 ha         1 314       0.176000
     43 H5           2.7020    -2.9070     3.9730 ha         1 314       0.125000
     44 H8          -3.3280    -6.3180     0.2080 h1         1 314       0.059950
     45 H8A         -3.3030    -7.7090     1.3010 h1         1 314       0.059950
     46 H9          -1.0620    -8.1050     2.5250 h1         1 314       0.059950
     47 H9A         -0.2240    -6.6170     2.9850 h1         1 314       0.059950
     48 H10         -3.0930    -7.3620     3.6490 hc         1 314       0.050450
     49 H10A        -2.3610    -5.7910     4.0050 hc         1 314       0.050450
     50 H11         -0.5040    -7.5870     5.0190 hc         1 314       0.036033
     51 H11A        -2.0510    -8.3590     5.3980 hc         1 314       0.036033
     52 H11B        -1.7170    -6.7190     5.9710 hc         1 314       0.036033
     53 H12         -1.3550    -8.6280     0.0850 hc         1 314       0.050450
     54 H12A        -1.3800    -7.2360    -1.0070 hc         1 314       0.050450
     55 H13         -2.5270    -9.1730    -2.0250 hc         1 314       0.036033
     56 H13A        -3.6650    -7.8510    -1.7330 hc         1 314       0.036033
     57 H13B        -3.6320    -9.2470    -0.6460 hc         1 314       0.036033
     58 H14          1.4400    -3.2070     5.9570 hc         1 314       0.044367
     59 H14A        -0.1860    -3.9030     5.9170 hc         1 314       0.044367
     60 H14B         1.2300    -4.9630     5.9110 hc         1 314       0.044367
     61 HN2          4.0530    -2.1670     3.0120 hn         1 314       0.311500
     62 H16          5.3760    -1.9780     0.4010 h1         1 314       0.110700
     63 H17          6.6160    -2.4590     2.5250 h1         1 314       0.037700
     64 HO3          6.3250    -1.1430     4.1500 ho         1 314       0.401000
     65 H18          5.6230     0.5100     0.5500 hc         1 314       0.063700
     66 H18A         4.4680     0.5110     1.8900 hc         1 314       0.063700
     67 H20          2.1240     0.0110     1.5210 ha         1 314       0.144500
     68 H22          0.7130     0.0510    -2.5120 ha         1 314       0.155000
     69 H24          4.9110     0.0180    -1.7130 ha         1 314       0.144500
     70 H25          7.3710     0.1410     1.1370 h1         1 314       0.083700
     71 H26          8.6400    -0.2530     3.2140 hc         1 314       0.047700
     72 H26A         9.0380    -1.8900     2.6630 hc         1 314       0.047700
     73 H27          9.8180     0.7020     1.2780 hc         1 314       0.061700
     74 H28         11.0510    -0.7580    -0.2690 hc         1 314       0.051200
     75 H28A        10.4670    -2.1900     0.5980 hc         1 314       0.051200
     76 H29          8.7280    -0.1440    -0.8270 h1         1 314       0.059200
     77 H29A         9.1000    -1.7740    -1.4140 h1         1 314       0.059200
     78 HN3          8.0570    -2.6360     0.5440 hn         1 314       0.352800
     79 H30         11.5210    -1.4130     2.6500 hc         1 314       0.049700
     80 H30A        11.0870     0.1430     3.3720 hc         1 314       0.049700
     81 H32         12.0100     2.2190     2.5150 ha         1 314       0.129500
     82 H33         13.8880     3.2920     1.3320 ha         1 314       0.130000
     83 H34         15.3510     1.9510    -0.1320 ha         1 314       0.130000
     84 H35         14.9390    -0.4640    -0.4060 ha         1 314       0.130000
     85 H36         13.0620    -1.5370     0.7800 ha         1 314       0.129500
     86 C18          4.7720    -0.0000     0.9840 c3         1 314      -0.043100
     87 C15          3.0490    -2.6640     1.3050 c          1 314       0.672700
     88 C7          -1.2560    -5.1580     1.1810 c          1 314       0.674700
     89 O2           3.0720    -2.6320     0.0910 o          1 314      -0.592100
@<TRIPOS>BOND
     1     1    24 1
     2     2    26 1
     3     3     4 ar
     4     3     8 ar
     5     4     5 ar
     6     4    88 1
     7     5     6 ar
     8     6     7 ar
     9     6    87 1
    10     7     8 ar
    11     8    17 1
    12    88     9 1
    13    88    10 2
    14     9    11 1
    15     9    12 1
    16    11    15 1
    17    12    13 1
    18    13    14 1
    19    15    16 1
    20    87    89 2
    21    87    18 1
    22    18    19 1
    23    19    20 1
    24    19    86 1
    25    20    21 1
    26    20    28 1
    27    86    22 1
    28    22    23 ar
    29    22    27 ar
    30    23    24 ar
    31    24    25 ar
    32    25    26 ar
    33    26    27 ar
    34    28    29 1
    35    28    33 1
    36    29    30 1
    37    30    31 1
    38    30    34 1
    39    31    32 1
    40    32    33 1
    41    34    35 1
    42    35    36 ar
    43    35    40 ar
    44    36    37 ar
    45    37    38 ar
    46    38    39 ar
    47    39    40 ar
    48     3    41 1
    49     5    42 1
    50     7    43 1
    51    11    44 1
    52    11    45 1
    53    12    46 1
    54    12    47 1
    55    13    48 1
    56    13    49 1
    57    14    50 1
    58    14    51 1
    59    14    52 1
    60    15    53 1
    61    15    54 1
    62    16    55 1
    63    16    56 1
    64    16    57 1
    65    17    58 1
    66    17    59 1
    67    17    60 1
    68    18    61 1
    69    19    62 1
    70    20    63 1
    71    21    64 1
    72    86    65 1
    73    86    66 1
    74    23    67 1
    75    25    68 1
    76    27    69 1
    77    28    70 1
    78    29    71 1
    79    29    72 1
    80    30    73 1
    81    31    74 1
    82    31    75 1
    83    32    76 1
    84    32    77 1
    85    33    78 1
    86    34    79 1
    87    34    80 1
    88    36    81 1
    89    37    82 1
    90    38    83 1
    91    39    84 1
    92    40    85 1
@<TRIPOS>SUBSTRUCTURE
     1 314         1 TEMP              0 ****  ****    0 ROOT
