@<TRIPOS>MOLECULE
molecule
   60    63     1     0     0
SMALL
bcc


@<TRIPOS>ATOM
      1 C1           1.5300     0.0000     0.0000 c3         1 315      -0.081700
      2 C2           0.0000     0.0000     0.0000 c3         1 315       0.031500
      3 C3          -0.5020    -1.2870     0.6000 c          1 315       0.662100
      4 N4          -0.6090    -2.3920    -0.1650 n          1 315      -0.460800
      5 O5          -0.8110    -1.3300     1.7720 o          1 315      -0.599100
      6 N6          -0.4900     1.1350     0.7940 nz         1 315      -0.802600
      7 C8           2.0400     0.0000     1.4430 c3         1 315      -0.060400
      8 C11         -0.2660    -2.4820    -1.5920 c3         1 315       0.045000
      9 C12         -0.5240    -3.9380    -2.0340 c3         1 315       0.167600
     10 C13         -0.4590    -4.7230    -0.6960 c3         1 315      -0.123400
     11 C14         -1.0830    -3.7110     0.2920 c3         1 315       0.100000
     12 F21          0.4750    -4.3720    -2.9120 f          1 315      -0.216300
     13 C23          3.5620    -0.1530     1.4450 cx         1 315      -0.156700
     14 C26          4.2560    -0.2820     2.8020 cx         1 315      -0.116400
     15 C27          4.3880     1.0110     1.9940 cx         1 315      -0.116400
     16 C33          2.0400     1.2500    -0.7210 c3         1 315       0.345300
     17 N35          1.4620     1.3330    -2.0810 n7         1 315      -0.843200
     18 C36          2.5300     1.8670    -2.9530 c3         1 315       0.398000
     19 N37          3.7030     2.0760    -2.0720 n7         1 315      -0.548700
     20 O38          3.4670     1.1610    -0.9320 os         1 315      -0.202100
     21 C39          2.0970     3.1760    -3.5620 ca         1 315      -0.110300
     22 C40          3.0230     4.1780    -3.7760 ca         1 315      -0.095000
     23 C41          2.6280     5.3790    -4.3350 ca         1 315      -0.031000
     24 C42          1.3030     5.5790    -4.6790 ca         1 315      -0.262500
     25 C43          0.3750     4.5780    -4.4650 ca         1 315      -0.059000
     26 C44          0.7720     3.3730    -3.9120 ca         1 315       0.092900
     27 F48         -0.1340     2.3920    -3.7080 f          1 315      -0.145900
     28 S49          0.8000     7.1110    -5.3900 sy         1 315       1.184300
     29 O50         -0.5750     7.2220    -5.0450 o          1 315      -0.603800
     30 O51          1.7530     8.0500    -4.9110 o          1 315      -0.603800
     31 C52          0.9910     6.8660    -7.1760 c3         1 315      -0.219300
     32 H1           1.8920    -0.8840    -0.5110 hc         1 315       0.127700
     33 H2          -0.3610     0.0890    -1.0180 hx         1 315       0.136700
     34 HN6         -0.3750     0.9360     1.7680 hn         1 315       0.463133
     35 HN6A         0.0300     1.9570     0.5580 hn         1 315       0.463133
     36 H8           1.7700     0.9340     1.9220 hc         1 315       0.050700
     37 H8A          1.5930    -0.8250     1.9840 hc         1 315       0.050700
     38 H11          0.7790    -2.2340    -1.7350 h1         1 315       0.065700
     39 H11A        -0.8920    -1.8080    -2.1640 h1         1 315       0.065700
     40 H12         -1.5050    -4.0310    -2.4830 h1         1 315       0.083700
     41 H13          0.5670    -4.9420    -0.4270 hc         1 315       0.087200
     42 H13A        -1.0550    -5.6260    -0.7510 hc         1 315       0.087200
     43 H14         -0.7350    -3.9070     1.2990 h1         1 315       0.077700
     44 H14A        -2.1650    -3.7580     0.2450 h1         1 315       0.077700
     45 H23          4.0340    -0.7040     0.6410 hc         1 315       0.100700
     46 H26          5.1360    -0.9150     2.8190 hc         1 315       0.081700
     47 H26A         3.6060    -0.2290     3.6670 hc         1 315       0.081700
     48 H27          5.3480     1.1690     1.5180 hc         1 315       0.081700
     49 H27A         3.8180     1.8540     2.3660 hc         1 315       0.081700
     50 H40          4.0610     4.0230    -3.5070 ha         1 315       0.159000
     51 H41          3.3550     6.1640    -4.5020 ha         1 315       0.172000
     52 H43         -0.6620     4.7340    -4.7370 ha         1 315       0.174000
     53 H52          0.3460     6.0590    -7.5010 h1         1 315       0.105367
     54 H52A         0.7190     7.7760    -7.6970 h1         1 315       0.105367
     55 H52B         2.0210     6.6160    -7.3980 h1         1 315       0.105367
     56 H25          1.7990     2.1430    -0.1560 h2         1 315       0.022700
     57 H261         0.6870     1.9660    -2.0760 hn         1 315       0.373800
     58 H271         2.7700     1.1500    -3.7280 h2         1 315       0.094700
     59 H28          4.5350     1.8000    -2.5540 hn         1 315       0.390800
     60 H63         -1.4590     1.2880     0.5950 hn         1 315       0.463133
@<TRIPOS>BOND
     1     1     2 1
     2     1    16 1
     3     1    32 1
     4     2     3 1
     5     2    33 1
     6     3     4 1
     7     4    11 1
     8     4     8 1
     9     5     3 2
    10     6     2 1
    11     6    34 1
    12     6    35 1
    13     7     1 1
    14     7    36 1
    15     7    37 1
    16     8     9 1
    17     8    38 1
    18     8    39 1
    19     9    12 1
    20     9    40 1
    21    10     9 1
    22    10    41 1
    23    10    42 1
    24    11    10 1
    25    11    43 1
    26    11    44 1
    27    13     7 1
    28    13    45 1
    29    14    13 1
    30    14    46 1
    31    14    47 1
    32    15    13 1
    33    15    14 1
    34    15    48 1
    35    15    49 1
    36    16    17 1
    37    16    20 1
    38    17    18 1
    39    18    19 1
    40    18    21 1
    41    20    19 1
    42    21    22 ar
    43    21    26 ar
    44    22    23 ar
    45    22    50 1
    46    23    24 ar
    47    23    51 1
    48    24    28 1
    49    25    24 ar
    50    25    52 1
    51    26    25 ar
    52    27    26 1
    53    28    30 2
    54    28    29 2
    55    31    28 1
    56    31    53 1
    57    31    54 1
    58    31    55 1
    59    16    56 1
    60    17    57 1
    61    18    58 1
    62    19    59 1
    63    60     6 1
@<TRIPOS>SUBSTRUCTURE
     1 315         1 TEMP              0 ****  ****    0 ROOT
