@<TRIPOS>MOLECULE
316
   87    90     1     0     0
SMALL
bcc


@<TRIPOS>ATOM
      1 C1           0.0000     0.0000     0.0000 ca         1 316      -0.096000
      2 C2           1.3970     0.0000     0.0000 ca         1 316      -0.149600
      3 C3           2.0900     0.0000     1.2090 ca         1 316       0.014000
      4 C4           1.3840    -0.0010     2.4090 ca         1 316      -0.162600
      5 C5          -0.0120    -0.0010     2.3950 ca         1 316      -0.073000
      6 C6          -0.6940    -0.0000     1.1940 ca         1 316      -0.102300
      7 C7           2.1380    -0.0010    -1.2790 c          1 316       0.609700
      8 N1           1.7860    -0.8560    -2.2610 n          1 316      -0.149800
      9 O1           3.0640     0.7690    -1.4460 o          1 316      -0.631100
     10 C8           2.5920    -0.9390    -3.4820 c3         1 316       0.034000
     11 C9           0.6000    -1.7000    -2.1070 c3         1 316       0.034000
     12 C10         -0.5740    -1.0730    -2.8610 c3         1 316      -0.056900
     13 C11         -1.8480    -1.8730    -2.5790 c3         1 316       0.008400
     14 C12          3.7670    -1.8920    -3.2530 c3         1 316      -0.056900
     15 C13          4.6080    -1.9800    -4.5280 c3         1 316       0.008400
     16 C14         -2.2010    -0.0010     1.1870 c3         1 316       0.065200
     17 C15          2.1130    -0.0010     3.6970 c          1 316       0.597700
     18 O2           3.3280    -0.0010     3.7070 o          1 316      -0.641100
     19 N2           1.4270    -0.0010     4.8580 ns         1 316      -0.190900
     20 C16          2.1490    -0.0010     6.1330 c3         1 316      -0.006300
     21 C17          1.2620    -0.6100     7.2210 c3         1 316       0.198100
     22 O3           0.1220     0.2260     7.4300 oh         1 316      -0.565800
     23 C18          2.5100     1.4350     6.5150 c3         1 316       0.006900
     24 C19          3.4820     1.9940     5.5080 ca         1 316      -0.025300
     25 C20          3.0120     2.6550     4.3880 ca         1 316      -0.142000
     26 C21          3.9040     3.1690     3.4630 ca         1 316       0.144400
     27 C22          5.2660     3.0210     3.6580 ca         1 316      -0.164000
     28 C23          5.7350     2.3590     4.7790 ca         1 316       0.144400
     29 C24          4.8410     1.8510     5.7070 ca         1 316      -0.142000
     30 F1           3.4450     3.8140     2.3670 f          1 316      -0.127400
     31 F2           7.0640     2.2130     4.9710 f          1 316      -0.127400
     32 C25          2.0570    -0.7270     8.5220 c3         1 316       0.031500
     33 C26          1.1850    -1.3250     9.5890 c          1 316       0.632500
     34 N4           1.6200    -2.2600    10.4390 n          1 316      -0.126800
     35 C28          2.9700    -2.8120    10.3880 c3         1 316       0.052000
     36 C29          3.8850    -1.8870     9.5840 c3         1 316       0.134800
     37 N3           3.2340    -1.5770     8.3010 n7         1 316      -0.583200
     38 O4           0.0370    -0.9440     9.6820 o          1 316      -0.690500
     39 C27          0.7000    -2.7540    11.4680 c3         1 316       0.105300
     40 C31         -0.0640    -3.9380    10.9330 ca         1 316      -0.124300
     41 C32          0.4390    -5.2150    11.0980 ca         1 316      -0.085500
     42 C33         -0.2620    -6.3010    10.6080 ca         1 316      -0.105500
     43 C34         -1.4650    -6.1100     9.9540 ca         1 316      -0.096000
     44 C35         -1.9680    -4.8320     9.7900 ca         1 316      -0.105500
     45 C36         -1.2690    -3.7460    10.2840 ca         1 316      -0.085500
     46 H1          -0.5400     0.0000    -0.9390 ha         1 316       0.138000
     47 H3           3.1730    -0.0000     1.2140 ha         1 316       0.142000
     48 H5          -0.5620    -0.0010     3.3280 ha         1 316       0.104000
     49 H8           2.9690     0.0450    -3.7340 h1         1 316       0.035700
     50 H8A          1.9790    -1.3100    -4.2950 h1         1 316       0.035700
     51 H9           0.3510    -1.7850    -1.0560 h1         1 316       0.035700
     52 H9A          0.8030    -2.6850    -2.5100 h1         1 316       0.035700
     53 H10         -0.3680    -1.0850    -3.9250 hc         1 316       0.023450
     54 H10A        -0.7100    -0.0500    -2.5310 hc         1 316       0.023450
     55 H11         -2.7020    -1.2060    -2.5850 hc         1 316       0.003033
     56 H11A        -1.7680    -2.3500    -1.6100 hc         1 316       0.003033
     57 H11B        -1.9760    -2.6290    -3.3440 hc         1 316       0.003033
     58 H12          3.3900    -2.8760    -3.0000 hc         1 316       0.023450
     59 H12A         4.3800    -1.5210    -2.4410 hc         1 316       0.023450
     60 H13          4.0120    -2.4100    -5.3240 hc         1 316       0.003033
     61 H13A         4.9330    -0.9880    -4.8160 hc         1 316       0.003033
     62 H13B         5.4740    -2.6050    -4.3470 hc         1 316       0.003033
     63 H14         -2.5670     0.3450     2.1460 hc         1 316       0.009033
     64 H14A        -2.5580     0.6580     0.4050 hc         1 316       0.009033
     65 H14B        -2.5610    -1.0060     1.0040 hc         1 316       0.009033
     66 HN2          0.4270    -0.0360     4.8490 hn         1 316       0.181500
     67 H16          3.0550    -0.5880     6.0360 h1         1 316       0.069700
     68 H17          0.9340    -1.5950     6.9090 h1         1 316       0.020700
     69 HO3         -0.6630    -0.2590     7.2380 ho         1 316       0.399000
     70 H18          2.9640     1.4440     7.4990 hc         1 316       0.035700
     71 H18A         1.6120     2.0420     6.5260 hc         1 316       0.035700
     72 H20          1.9460     2.7710     4.2360 ha         1 316       0.117500
     73 H22          5.9650     3.4210     2.9330 ha         1 316       0.134000
     74 H24          5.2080     1.3330     6.5850 ha         1 316       0.117500
     75 H25          2.3820     0.2570     8.8380 h1         1 316       0.046700
     76 H28          2.9410    -3.7860     9.9140 h1         1 316       0.024200
     77 H28A         3.3560    -2.9080    11.3960 h1         1 316       0.024200
     78 H29          4.8310    -2.3820     9.4010 h1         1 316       0.018700
     79 H29A         4.0490    -0.9700    10.1380 h1         1 316       0.018700
     80 HN3          3.8830    -1.1020     7.7050 hn         1 316       0.271800
     81 H27          0.0060    -1.9680    11.7380 h1         1 316       0.037200
     82 H27A         1.2650    -3.0530    12.3430 h1         1 316       0.037200
     83 H32          1.3810    -5.3650    11.6100 ha         1 316       0.114500
     84 H33          0.1310    -7.3020    10.7360 ha         1 316       0.103000
     85 H34         -2.0130    -6.9610     9.5680 ha         1 316       0.102000
     86 H35         -2.9110    -4.6830     9.2790 ha         1 316       0.103000
     87 H36         -1.6620    -2.7450    10.1550 ha         1 316       0.114500
@<TRIPOS>BOND
     1     1     2 ar  
     2     1     6 ar  
     3     1    46 1   
     4     2     3 ar  
     5     2     7 1   
     6     3     4 ar  
     7     3    47 1   
     8     4     5 ar  
     9     4    17 1   
    10     5     6 ar  
    11     5    48 1   
    12     6    16 1   
    13     7     8 1   
    14     7     9 2   
    15     8    10 1   
    16     8    11 1   
    17    10    14 1   
    18    10    49 1   
    19    10    50 1   
    20    11    12 1   
    21    11    51 1   
    22    11    52 1   
    23    12    13 1   
    24    12    53 1   
    25    12    54 1   
    26    13    55 1   
    27    13    56 1   
    28    13    57 1   
    29    14    15 1   
    30    14    58 1   
    31    14    59 1   
    32    15    60 1   
    33    15    61 1   
    34    15    62 1   
    35    16    63 1   
    36    16    64 1   
    37    16    65 1   
    38    17    18 2   
    39    17    19 1   
    40    19    20 1   
    41    19    66 1   
    42    20    21 1   
    43    20    23 1   
    44    20    67 1   
    45    21    22 1   
    46    21    32 1   
    47    21    68 1   
    48    22    69 1   
    49    23    24 1   
    50    23    70 1   
    51    23    71 1   
    52    24    25 ar  
    53    24    29 ar  
    54    25    26 ar  
    55    25    72 1   
    56    26    27 ar  
    57    26    30 1   
    58    27    28 ar  
    59    27    73 1   
    60    28    29 ar  
    61    28    31 1   
    62    29    74 1   
    63    32    33 1   
    64    32    37 1   
    65    32    75 1   
    66    33    34 1   
    67    33    38 2   
    68    34    35 1   
    69    34    39 1   
    70    35    36 1   
    71    35    76 1   
    72    35    77 1   
    73    36    37 1   
    74    36    78 1   
    75    36    79 1   
    76    37    80 1   
    77    39    40 1   
    78    39    81 1   
    79    39    82 1   
    80    40    41 ar  
    81    40    45 ar  
    82    41    42 ar  
    83    41    83 1   
    84    42    43 ar  
    85    42    84 1   
    86    43    44 ar  
    87    43    85 1   
    88    44    45 ar  
    89    44    86 1   
    90    45    87 1   
@<TRIPOS>SUBSTRUCTURE
     1 316         1 TEMP              0 ****  ****    0 ROOT
