@<TRIPOS>MOLECULE
317
   56    59     1     0     0
SMALL
bcc


@<TRIPOS>ATOM
      1 C1          1.9640   -0.2180    0.4570 c3        1 317     -0.094000
      2 C2          0.4680   -0.0690    0.0900 c3        1 317      0.178700
      3 C3         -0.1590    1.2200    0.5690 c2        1 317     -0.041700
      4 C4         -1.0630    1.2810    1.5750 c2        1 317     -0.019400
      5 F5          0.2580    2.3410   -0.0800 f         1 317     -0.156500
      6 N6          0.2460   -0.2070   -1.3980 n4        1 317     -0.841600
      7 C7          2.1390   -0.1880    1.9750 c3        1 317     -0.053400
      8 C8         -1.6600    2.5590    2.0640 c3        1 317     -0.065700
      9 C9         -2.5940    2.1990    3.2140 c3        1 317     -0.081400
     10 C10        -2.6450    0.6780    3.3060 c3        1 317     -0.081400
     11 C11        -1.5950    0.1210    2.3470 c3        1 317     -0.065700
     12 C18         1.8260   -1.5170    2.5840 cx        1 317     -0.174700
     13 C19         2.4710   -1.8800    3.8990 cx        1 317     -0.111900
     14 C20         2.8890   -2.5860    2.6470 cx        1 317     -0.111900
     15 C26         2.8020    0.7900   -0.2380 cc        1 317      0.469700
     16 N27         2.7730    1.2230   -1.4980 nd        1 317     -0.726000
     17 C28         3.8630    2.1370   -1.5780 cd        1 317      0.606500
     18 N29         4.4990    2.2150   -0.3770 nc        1 317     -0.312300
     19 O30         3.8760    1.4100    0.4520 os        1 317     -0.097100
     20 C31         4.2050    2.8830   -2.7890 ca        1 317     -0.090500
     21 C32         4.4330    4.2610   -2.6910 ca        1 317     -0.105000
     22 C33         4.7340    5.0010   -3.8320 ca        1 317     -0.024000
     23 C34         4.8190    4.3840   -5.0840 ca        1 317     -0.326500
     24 C35         4.6020    3.0070   -5.1790 ca        1 317     -0.023000
     25 C36         4.3000    2.2530   -4.0400 ca        1 317      0.023400
     26 S40         5.1250    5.3040   -6.4840 sy        1 317      1.391300
     27 O41         4.6040    4.6190   -7.5860 o         1 317     -0.642300
     28 O42         4.7080    6.6180   -6.2520 o         1 317     -0.642300
     29 C43         6.8060    5.2310   -6.5060 c3        1 317     -0.374300
     30 CL47        4.0770    0.5780   -4.2140 cl        1 317     -0.076400
     31 H1          2.3220   -1.2340    0.0990 hc        1 317      0.102700
     32 H2         -0.0720   -0.9380    0.5840 hx        1 317      0.122700
     33 HN6         0.8970   -0.8910   -1.7940 hn        1 317      0.468467
     34 HN6A       -0.7170   -0.4980   -1.5790 hn        1 317      0.468467
     35 H7          3.2030    0.0940    2.2120 hc        1 317      0.086200
     36 H7A         1.4800    0.6040    2.4200 hc        1 317      0.086200
     37 H8         -0.8510    3.2620    2.3960 hc        1 317      0.074950
     38 H8A        -2.2130    3.0670    1.2310 hc        1 317      0.074950
     39 H9         -2.2150    2.6370    4.1720 hc        1 317      0.065700
     40 H9A        -3.6150    2.6200    3.0370 hc        1 317      0.065700
     41 H10        -3.6610    0.3020    3.0250 hc        1 317      0.065700
     42 H10A       -2.4390    0.3360    4.3510 hc        1 317      0.065700
     43 H11        -0.7620   -0.3730    2.9170 hc        1 317      0.074950
     44 H11A       -2.0460   -0.6460    1.6660 hc        1 317      0.074950
     45 H18         0.7790   -1.8400    2.4220 hc        1 317      0.065700
     46 H19         3.1670   -1.1610    4.3700 hc        1 317      0.085950
     47 H19A        1.8700   -2.4220    4.6510 hc        1 317      0.085950
     48 H20         2.5930   -3.6400    2.4990 hc        1 317      0.085950
     49 H20A        3.8870   -2.3750    2.2220 hc        1 317      0.085950
     50 H32         4.3710    4.7630   -1.7120 ha        1 317      0.164000
     51 H33         4.8880    6.0930   -3.7520 ha        1 317      0.174000
     52 H35         4.6530    2.5160   -6.1690 ha        1 317      0.182000
     53 H43         7.2240    5.8040   -7.3750 h1        1 317      0.125367
     54 H43A        7.2850    5.6700   -5.5960 h1        1 317      0.125367
     55 H43B        7.2080    4.1930   -6.6060 h1        1 317      0.125367
     56 H63         0.4080    0.7030   -1.8580 hn        1 317      0.468467
@<TRIPOS>BOND
     1    1    2 1   
     2    1    7 1   
     3    1   15 1   
     4    1   31 1   
     5    2    3 1   
     6    2    6 1   
     7    2   32 1   
     8    3    4 2   
     9    3    5 1   
    10    4    8 1   
    11    4   11 1   
    12    6   33 1   
    13    6   34 1   
    14    6   56 1   
    15    7   12 1   
    16    7   35 1   
    17    7   36 1   
    18    8    9 1   
    19    8   37 1   
    20    8   38 1   
    21    9   10 1   
    22    9   39 1   
    23    9   40 1   
    24   10   11 1   
    25   10   41 1   
    26   10   42 1   
    27   11   43 1   
    28   11   44 1   
    29   12   13 1   
    30   12   14 1   
    31   12   45 1   
    32   13   14 1   
    33   13   46 1   
    34   13   47 1   
    35   14   48 1   
    36   14   49 1   
    37   15   16 2   
    38   15   19 1   
    39   16   17 1   
    40   17   18 2   
    41   17   20 1   
    42   18   19 1   
    43   20   21 ar  
    44   20   25 ar  
    45   21   22 ar  
    46   21   50 1   
    47   22   23 ar  
    48   22   51 1   
    49   23   24 ar  
    50   23   26 1   
    51   24   25 ar  
    52   24   52 1   
    53   25   30 1   
    54   26   27 2   
    55   26   28 2   
    56   26   29 1   
    57   29   53 1   
    58   29   54 1   
    59   29   55 1   
@<TRIPOS>SUBSTRUCTURE
     1 317         1 TEMP              0 ****  ****    0 ROOT
