@<TRIPOS>MOLECULE
molecule
   84    87     1     0     0
SMALL
bcc


@<TRIPOS>ATOM
      1 F1           0.0000     0.0000     0.0000 f          1 318      -0.136900
      2 N1           5.6820    -2.0970    -0.1150 ns         1 318      -0.579900
      3 C1           5.1580    -1.4420    -1.3160 c3         1 318       0.116700
      4 C2           6.2320    -1.4440    -2.4060 c3         1 318       0.158100
      5 O1           7.3360    -0.6400    -1.9880 oh         1 318      -0.595800
      6 C3           5.6460    -0.8730    -3.7000 c3         1 318       0.043500
      7 N2           4.5190    -1.7120    -4.1700 n7         1 318      -0.794200
      8 C4           4.6380    -1.6410    -5.6450 c3         1 318       0.318200
      9 N3           6.0570    -1.3910    -5.9270 n          1 318      -0.499800
     10 C5           6.6670    -0.9370    -4.8150 c          1 318       0.708500
     11 C6           4.7720     0.0010    -0.9830 c3         1 318      -0.048100
     12 O2           7.8380    -0.6320    -4.7210 o          1 318      -0.617500
     13 C8           6.7100    -1.6040    -7.2220 c3         1 318       0.178300
     14 C9           6.6240    -0.3420    -8.0410 ca         1 318      -0.124300
     15 C10          7.6250     0.6080    -7.9530 ca         1 318      -0.110000
     16 C11          7.5460     1.7650    -8.7050 ca         1 318      -0.130500
     17 C12          6.4680     1.9730    -9.5440 ca         1 318      -0.120000
     18 C13          5.4680     1.0220    -9.6330 ca         1 318      -0.130500
     19 C14          5.5480    -0.1370    -8.8840 ca         1 318      -0.110000
     20 C15          3.6300     0.0000     0.0000 ca         1 318      -0.019300
     21 C16          3.8890     0.0000     1.3580 ca         1 318      -0.175000
     22 C17          2.8390    -0.0000     2.2630 ca         1 318       0.168900
     23 C18          1.5330     0.0010     1.8070 ca         1 318      -0.206000
     24 C19          1.2750     0.0000     0.4460 ca         1 318       0.168900
     25 C20          2.3250     0.0070    -0.4560 ca         1 318      -0.175000
     26 O3           3.6360    -2.6320     0.5650 o          1 318      -0.596100
     27 C21          5.3630    -3.3260     1.9800 ca         1 318      -0.150600
     28 C22          4.4890    -3.9120     2.8910 ca         1 318      -0.021000
     29 C23          4.9940    -4.5320     4.0320 ca         1 318      -0.144600
     30 C24          6.3730    -4.5630     4.2530 ca         1 318      -0.102000
     31 C25          7.2340    -3.9800     3.3440 ca         1 318      -0.101300
     32 C26          6.7400    -3.3680     2.2100 ca         1 318      -0.092000
     33 C27          8.7210    -4.0170     3.5890 c3         1 318      -0.046800
     34 C28          4.0740    -5.1570     5.0060 c          1 318       0.675700
     35 O4           3.0760    -4.5640     5.3660 o          1 318      -0.592100
     36 N4           4.3410    -6.3850     5.4940 n          1 318      -0.488800
     37 C29          3.3670    -7.0570     6.3580 c3         1 318       0.100000
     38 C30          2.4120    -7.8870     5.4980 c3         1 318      -0.109900
     39 C31          1.3950    -8.5900     6.4000 c3         1 318      -0.093100
     40 C32          5.6060    -7.0450     5.1620 c3         1 318       0.100000
     41 C33          6.6010    -6.8470     6.3060 c3         1 318      -0.109900
     42 C34          7.9620    -7.4190     5.9040 c3         1 318      -0.093100
     43 HN1          6.6700    -2.1670     0.0270 hn         1 318       0.316500
     44 H1           4.2850    -1.9780    -1.6680 h1         1 318       0.096700
     45 H2           6.5690    -2.4590    -2.5800 h1         1 318       0.058700
     46 HO1          8.1330    -1.1400    -2.0550 ho         1 318       0.415000
     47 H3           5.3160     0.1490    -3.5530 h1         1 318       0.078700
     48 HN2          3.6530    -1.3000    -3.8850 hn         1 318       0.368800
     49 H4           4.3310    -2.5800    -6.0880 h2         1 318       0.049200
     50 H4A          4.0350    -0.8260    -6.0270 h2         1 318       0.049200
     51 H6           5.6230     0.5120    -0.5490 hc         1 318       0.062200
     52 H6A          4.4680     0.5110    -1.8890 hc         1 318       0.062200
     53 H8           7.7500    -1.8610    -7.0640 h1         1 318       0.065700
     54 H8A          6.2150    -2.4110    -7.7480 h1         1 318       0.065700
     55 H10          8.4700     0.4460    -7.2960 ha         1 318       0.136000
     56 H11          8.3300     2.5100    -8.6360 ha         1 318       0.132500
     57 H12          6.4060     2.8810   -10.1320 ha         1 318       0.131000
     58 H13          4.6240     1.1840   -10.2920 ha         1 318       0.132500
     59 H14          4.7650    -0.8820    -8.9540 ha         1 318       0.136000
     60 H16          4.9090     0.0670     1.7140 ha         1 318       0.140000
     61 H18          0.7130     0.0340     2.5140 ha         1 318       0.157000
     62 H20          2.1240     0.0480    -1.5200 ha         1 318       0.140000
     63 H22          3.4200    -3.8850     2.7150 ha         1 318       0.175000
     64 H24          6.7670    -5.0430     5.1400 ha         1 318       0.154000
     65 H26          7.4220    -2.9120     1.5010 ha         1 318       0.126000
     66 H27          9.1920    -3.1860     3.0770 hc         1 318       0.045367
     67 H27A         9.1260    -4.9490     3.2140 hc         1 318       0.045367
     68 H27B         8.9140    -3.9410     4.6520 hc         1 318       0.045367
     69 H29          2.8040    -6.3160     6.9120 h1         1 318       0.059950
     70 H29A         3.8880    -7.7070     7.0510 h1         1 318       0.059950
     71 H30          2.9760    -8.6280     4.9440 hc         1 318       0.050200
     72 H30A         1.8920    -7.2370     4.8050 hc         1 318       0.050200
     73 H31          1.9170    -9.2200     7.1100 hc         1 318       0.036367
     74 H31A         0.7360    -9.1990     5.7940 hc         1 318       0.036367
     75 H31B         0.8130    -7.8490     6.9340 hc         1 318       0.036367
     76 H32          5.4320    -8.1050     5.0140 h1         1 318       0.059950
     77 H32A         6.0100    -6.6160     4.2530 h1         1 318       0.059950
     78 H33          6.7020    -5.7890     6.5170 hc         1 318       0.050200
     79 H33A         6.2410    -7.3580     7.1910 hc         1 318       0.050200
     80 H34          8.0120    -7.5050     4.8250 hc         1 318       0.036367
     81 H34A         8.0880    -8.3970     6.3510 hc         1 318       0.036367
     82 H34B         8.7480    -6.7590     6.2510 hc         1 318       0.036367
     83 F2           3.0930    -0.0000     3.5900 f          1 318      -0.136900
     84 C7           4.8340    -2.6640     0.7670 c          1 318       0.674700
@<TRIPOS>BOND
     1     1    24 1   
     2    83    22 1   
     3     2     3 1   
     4     2    84 1   
     5     3     4 1   
     6     3    11 1   
     7     4     5 1   
     8     4     6 1   
     9     6     7 1   
    10     6    10 1   
    11     7     8 1   
    12     8     9 1   
    13     9    10 1   
    14     9    13 1   
    15    10    12 2   
    16    11    20 1   
    17    84    26 2   
    18    84    27 1   
    19    13    14 1   
    20    14    15 ar  
    21    14    19 ar  
    22    15    16 ar  
    23    16    17 ar  
    24    17    18 ar  
    25    18    19 ar  
    26    20    21 ar  
    27    20    25 ar  
    28    21    22 ar  
    29    22    23 ar  
    30    23    24 ar  
    31    24    25 ar  
    32    27    28 ar  
    33    27    32 ar  
    34    28    29 ar  
    35    29    30 ar  
    36    29    34 1   
    37    30    31 ar  
    38    31    32 ar  
    39    31    33 1   
    40    34    35 2   
    41    34    36 1   
    42    36    37 1   
    43    36    40 1   
    44    37    38 1   
    45    38    39 1   
    46    40    41 1   
    47    41    42 1   
    48     2    43 1   
    49     3    44 1   
    50     4    45 1   
    51     5    46 1   
    52     6    47 1   
    53     7    48 1   
    54     8    49 1   
    55     8    50 1   
    56    11    51 1   
    57    11    52 1   
    58    13    53 1   
    59    13    54 1   
    60    15    55 1   
    61    16    56 1   
    62    17    57 1   
    63    18    58 1   
    64    19    59 1   
    65    21    60 1   
    66    23    61 1   
    67    25    62 1   
    68    28    63 1   
    69    30    64 1   
    70    32    65 1   
    71    33    66 1   
    72    33    67 1   
    73    33    68 1   
    74    37    69 1   
    75    37    70 1   
    76    38    71 1   
    77    38    72 1   
    78    39    73 1   
    79    39    74 1   
    80    39    75 1   
    81    40    76 1   
    82    40    77 1   
    83    41    78 1   
    84    41    79 1   
    85    42    80 1   
    86    42    81 1   
    87    42    82 1   
@<TRIPOS>SUBSTRUCTURE
     1 318         1 TEMP              0 ****  ****    0 ROOT
