@<TRIPOS>MOLECULE
318
   84    87     1     0     0
SMALL
bcc


@<TRIPOS>ATOM
      1 F1           0.0000     0.0000     0.0000 f          1 318      -0.127400
      2 N1           5.6820    -2.0970    -0.1150 ns         1 318      -0.191900
      3 C1           5.1580    -1.4420    -1.3160 c3         1 318       0.002700
      4 C2           6.2320    -1.4440    -2.4060 c3         1 318       0.204100
      5 O1           7.3360    -0.6400    -1.9880 oh         1 318      -0.575800
      6 C3           5.6460    -0.8730    -3.7000 c3         1 318      -0.002500
      7 N2           4.5190    -1.7120    -4.1700 n7         1 318      -0.574200
      8 C4           4.6380    -1.6410    -5.6450 c3         1 318       0.219200
      9 N3           6.0570    -1.3910    -5.9270 n          1 318      -0.172800
     10 C5           6.6670    -0.9370    -4.8150 c          1 318       0.642500
     11 C6           4.7720     0.0010    -0.9830 c3         1 318       0.008900
     12 O2           7.8380    -0.6320    -4.7210 o          1 318      -0.657500
     13 C8           6.7100    -1.6040    -7.2220 c3         1 318       0.145300
     14 C9           6.6240    -0.3420    -8.0410 ca         1 318      -0.139300
     15 C10          7.6250     0.6080    -7.9530 ca         1 318      -0.082000
     16 C11          7.5460     1.7650    -8.7050 ca         1 318      -0.102500
     17 C12          6.4680     1.9730    -9.5440 ca         1 318      -0.091000
     18 C13          5.4680     1.0220    -9.6330 ca         1 318      -0.102500
     19 C14          5.5480    -0.1370    -8.8840 ca         1 318      -0.082000
     20 C15          3.6300     0.0000     0.0000 ca         1 318      -0.025300
     21 C16          3.8890     0.0000     1.3580 ca         1 318      -0.140500
     22 C17          2.8390    -0.0000     2.2630 ca         1 318       0.143900
     23 C18          1.5330     0.0010     1.8070 ca         1 318      -0.164000
     24 C19          1.2750     0.0000     0.4460 ca         1 318       0.143900
     25 C20          2.3250     0.0070    -0.4560 ca         1 318      -0.140500
     26 O3           3.6360    -2.6320     0.5650 o          1 318      -0.640100
     27 C21          5.3630    -3.3260     1.9800 ca         1 318      -0.161600
     28 C22          4.4890    -3.9120     2.8910 ca         1 318       0.014000
     29 C23          4.9940    -4.5320     4.0320 ca         1 318      -0.149600
     30 C24          6.3730    -4.5630     4.2530 ca         1 318      -0.101000
     31 C25          7.2340    -3.9800     3.3440 ca         1 318      -0.102300
     32 C26          6.7400    -3.3680     2.2100 ca         1 318      -0.073000
     33 C27          8.7210    -4.0170     3.5890 c3         1 318       0.064200
     34 C28          4.0740    -5.1570     5.0060 c          1 318       0.609700
     35 O4           3.0760    -4.5640     5.3660 o          1 318      -0.632100
     36 N4           4.3410    -6.3850     5.4940 n          1 318      -0.149800
     37 C29          3.3670    -7.0570     6.3580 c3         1 318       0.032500
     38 C30          2.4120    -7.8870     5.4980 c3         1 318      -0.057400
     39 C31          1.3950    -8.5900     6.4000 c3         1 318       0.008400
     40 C32          5.6060    -7.0450     5.1620 c3         1 318       0.032500
     41 C33          6.6010    -6.8470     6.3060 c3         1 318      -0.057400
     42 C34          7.9620    -7.4190     5.9040 c3         1 318       0.008400
     43 HN1          6.6700    -2.1670     0.0270 hn         1 318       0.181500
     44 H1           4.2850    -1.9780    -1.6680 h1         1 318       0.072700
     45 H2           6.5690    -2.4590    -2.5800 h1         1 318       0.018700
     46 HO1          8.1330    -1.1400    -2.0550 ho         1 318       0.403000
     47 H3           5.3160     0.1490    -3.5530 h1         1 318       0.056700
     48 HN2          3.6530    -1.3000    -3.8850 hn         1 318       0.272800
     49 H4           4.3310    -2.5800    -6.0880 h2         1 318       0.015700
     50 H4A          4.0350    -0.8260    -6.0270 h2         1 318       0.015700
     51 H6           5.6230     0.5120    -0.5490 hc         1 318       0.034200
     52 H6A          4.4680     0.5110    -1.8890 hc         1 318       0.034200
     53 H8           7.7500    -1.8610    -7.0640 h1         1 318       0.032200
     54 H8A          6.2150    -2.4110    -7.7480 h1         1 318       0.032200
     55 H10          8.4700     0.4460    -7.2960 ha         1 318       0.111500
     56 H11          8.3300     2.5100    -8.6360 ha         1 318       0.105000
     57 H12          6.4060     2.8810   -10.1320 ha         1 318       0.103000
     58 H13          4.6240     1.1840   -10.2920 ha         1 318       0.105000
     59 H14          4.7650    -0.8820    -8.9540 ha         1 318       0.111500
     60 H16          4.9090     0.0670     1.7140 ha         1 318       0.117000
     61 H18          0.7130     0.0340     2.5140 ha         1 318       0.133000
     62 H20          2.1240     0.0480    -1.5200 ha         1 318       0.117000
     63 H22          3.4200    -3.8850     2.7150 ha         1 318       0.143000
     64 H24          6.7670    -5.0430     5.1400 ha         1 318       0.141000
     65 H26          7.4220    -2.9120     1.5010 ha         1 318       0.104000
     66 H27          9.1920    -3.1860     3.0770 hc         1 318       0.009033
     67 H27A         9.1260    -4.9490     3.2140 hc         1 318       0.009033
     68 H27B         8.9140    -3.9410     4.6520 hc         1 318       0.009033
     69 H29          2.8040    -6.3160     6.9120 h1         1 318       0.036700
     70 H29A         3.8880    -7.7070     7.0510 h1         1 318       0.036700
     71 H30          2.9760    -8.6280     4.9440 hc         1 318       0.023450
     72 H30A         1.8920    -7.2370     4.8050 hc         1 318       0.023450
     73 H31          1.9170    -9.2200     7.1100 hc         1 318       0.003200
     74 H31A         0.7360    -9.1990     5.7940 hc         1 318       0.003200
     75 H31B         0.8130    -7.8490     6.9340 hc         1 318       0.003200
     76 H32          5.4320    -8.1050     5.0140 h1         1 318       0.036700
     77 H32A         6.0100    -6.6160     4.2530 h1         1 318       0.036700
     78 H33          6.7020    -5.7890     6.5170 hc         1 318       0.023450
     79 H33A         6.2410    -7.3580     7.1910 hc         1 318       0.023450
     80 H34          8.0120    -7.5050     4.8250 hc         1 318       0.003200
     81 H34A         8.0880    -8.3970     6.3510 hc         1 318       0.003200
     82 H34B         8.7480    -6.7590     6.2510 hc         1 318       0.003200
     83 F2           3.0930    -0.0000     3.5900 f          1 318      -0.127400
     84 C7           4.8340    -2.6640     0.7670 c          1 318       0.596700
@<TRIPOS>BOND
     1     1    24 1   
     2     2     3 1   
     3     2    43 1   
     4     2    84 1   
     5     3     4 1   
     6     3    11 1   
     7     3    44 1   
     8     4     5 1   
     9     4     6 1   
    10     4    45 1   
    11     5    46 1   
    12     6     7 1   
    13     6    10 1   
    14     6    47 1   
    15     7     8 1   
    16     7    48 1   
    17     8     9 1   
    18     8    49 1   
    19     8    50 1   
    20     9    10 1   
    21     9    13 1   
    22    10    12 2   
    23    11    20 1   
    24    11    51 1   
    25    11    52 1   
    26    13    14 1   
    27    13    53 1   
    28    13    54 1   
    29    14    15 ar  
    30    14    19 ar  
    31    15    16 ar  
    32    15    55 1   
    33    16    17 ar  
    34    16    56 1   
    35    17    18 ar  
    36    17    57 1   
    37    18    19 ar  
    38    18    58 1   
    39    19    59 1   
    40    20    21 ar  
    41    20    25 ar  
    42    21    22 ar  
    43    21    60 1   
    44    22    23 ar  
    45    22    83 1   
    46    23    24 ar  
    47    23    61 1   
    48    24    25 ar  
    49    25    62 1   
    50    26    84 2   
    51    27    28 ar  
    52    27    32 ar  
    53    27    84 1   
    54    28    29 ar  
    55    28    63 1   
    56    29    30 ar  
    57    29    34 1   
    58    30    31 ar  
    59    30    64 1   
    60    31    32 ar  
    61    31    33 1   
    62    32    65 1   
    63    33    66 1   
    64    33    67 1   
    65    33    68 1   
    66    34    35 2   
    67    34    36 1   
    68    36    37 1   
    69    36    40 1   
    70    37    38 1   
    71    37    69 1   
    72    37    70 1   
    73    38    39 1   
    74    38    71 1   
    75    38    72 1   
    76    39    73 1   
    77    39    74 1   
    78    39    75 1   
    79    40    41 1   
    80    40    76 1   
    81    40    77 1   
    82    41    42 1   
    83    41    78 1   
    84    41    79 1   
    85    42    80 1   
    86    42    81 1   
    87    42    82 1   
@<TRIPOS>SUBSTRUCTURE
     1 318         1 TEMP              0 ****  ****    0 ROOT
