@<TRIPOS>MOLECULE
319
   45    47     1     0     0
SMALL
bcc


@<TRIPOS>ATOM
      1 C1           0.0000     0.0000     0.0000 ca         1 319      -0.056500
      2 C2          -0.0020    -0.0010     2.3940 ca         1 319      -0.056500
      3 C3          -5.5700    -5.5330     1.7100 ca         1 319      -0.069000
      4 C4          -6.0320    -6.8320     1.6150 ca         1 319      -0.154000
      5 C5           1.3820     0.0000     0.0000 ca         1 319      -0.128000
      6 C6           1.3800    -0.0010     2.3970 ca         1 319      -0.128000
      7 C7          -6.1200   -10.2310     0.8860 ca         1 319      -0.239300
      8 C8          -7.4280    -4.7760     0.3830 ca         1 319      -0.139000
      9 C9          -7.1820    -9.4680     2.8890 ca         1 319      -0.255300
     10 C10         -5.4780   -11.1930     1.6350 ca         1 319       0.427200
     11 C11         -0.6910    -0.0010     1.1970 ca         1 319      -0.091300
     12 C12         -6.2680    -4.5030     1.0940 ca         1 319      -0.089400
     13 C13         -7.1910    -7.1070     0.9040 ca         1 319       0.103100
     14 C14         -6.9930    -9.3450     1.5170 ca         1 319       0.138100
     15 C15          2.0740     0.0000     1.1980 ca         1 319       0.108900
     16 C16         -7.8890    -6.0770     0.2880 ca         1 319       0.093900
     17 C17         -6.4980   -10.4630     3.5770 ca         1 319       0.511200
     18 C18         -2.7010    -1.4210     1.1950 c          1 319       0.554100
     19 C19         -4.4750    -2.9380     1.1920 c          1 319       0.547100
     20 C20         -2.1980    -0.0000     1.1960 c3         1 319      -0.035100
     21 N21         -5.6780   -11.2840     2.9370 nb         1 319      -0.596000
     22 N22         -6.6760   -10.5980     4.9490 nv         1 319      -0.654500
     23 N23         -5.8000    -3.1850     1.1910 ns         1 319      -0.051100
     24 N24         -4.0260    -1.6680     1.1940 ns         1 319      -0.180500
     25 O25         -1.9130    -2.3430     1.1950 o          1 319      -0.530100
     26 O26         -3.6860    -3.8630     1.1920 o          1 319      -0.611100
     27 O27         -7.6430    -8.3860     0.8100 os         1 319      -0.207200
     28 F28          3.4250    -0.0010     1.1990 f          1 319      -0.128900
     29 F29         -9.0180    -6.3450    -0.4040 f          1 319      -0.119900
     30 H1          -0.5420    -0.0000    -0.9380 ha         1 319       0.106000
     31 H2          -0.5440    -0.0020     3.3320 ha         1 319       0.106000
     32 H3          -4.6650    -5.3190     2.2650 ha         1 319       0.153000
     33 H4          -5.4880    -7.6370     2.0950 ha         1 319       0.132000
     34 H5           1.9230     0.0010    -0.9380 ha         1 319       0.119000
     35 H6           1.9210    -0.0010     3.3350 ha         1 319       0.119000
     36 H8          -7.9720    -3.9710    -0.0970 ha         1 319       0.121000
     37 H9          -7.8520    -8.7980     3.4140 ha         1 319       0.131000
     38 H10         -4.7990   -11.8830     1.1490 h4         1 319      -0.017900
     39 H20         -2.5600     0.5100     2.0800 hc         1 319       0.031200
     40 H20A        -2.5590     0.5110     0.3110 hc         1 319       0.031200
     41 HN22        -7.4550   -11.1160     5.3030 hn         1 319       0.278300
     42 HN2A        -6.0110   -10.1990     5.5810 hn         1 319       0.278300
     43 HN23        -6.4480    -2.4230     1.1500 hn         1 319       0.159500
     44 HN24        -4.6770    -0.9080     1.2000 hn         1 319       0.163500
     45 H7          -5.9500   -10.1640    -0.1810 ha         1 319       0.127000
@<TRIPOS>BOND
     1     1     5 ar  
     2     1    11 ar  
     3     1    30 1   
     4     2     6 ar  
     5     2    11 ar  
     6     2    31 1   
     7     3     4 ar  
     8     3    12 ar  
     9     3    32 1   
    10     4    13 ar  
    11     4    33 1   
    12     5    15 ar  
    13     5    34 1   
    14     6    15 ar  
    15     6    35 1   
    16     7    10 ar  
    17     7    14 ar  
    18     7    45 1   
    19     8    12 ar  
    20     8    16 ar  
    21     8    36 1   
    22     9    14 ar  
    23     9    17 ar  
    24     9    37 1   
    25    10    21 ar  
    26    10    38 1   
    27    11    20 1   
    28    12    23 1   
    29    13    16 ar  
    30    13    27 1   
    31    14    27 1   
    32    15    28 1   
    33    16    29 1   
    34    17    21 ar  
    35    17    22 1   
    36    18    20 1   
    37    18    24 1   
    38    18    25 2   
    39    19    23 1   
    40    19    24 1   
    41    19    26 2   
    42    20    39 1   
    43    20    40 1   
    44    22    41 1   
    45    22    42 1   
    46    23    43 1   
    47    24    44 1   
@<TRIPOS>SUBSTRUCTURE
     1 319         1 TEMP              0 ****  ****    0 ROOT
