@<TRIPOS>MOLECULE
molecule
   52    54     1     0     0
SMALL
bcc


@<TRIPOS>ATOM
      1 O1           0.0000     0.0000     0.0000 o          1 31A      -0.497100
      2 C9           1.2160     0.0000     0.0000 c          1 31A       0.659700
      3 N1           1.8900     0.0000     1.1670 ns         1 31A      -0.483400
      4 C            1.2020    -0.0020     2.3590 c2         1 31A       0.457900
      5 C1           1.9550    -0.0020     3.6640 c3         1 31A      -0.124400
      6 C2           0.9770    -0.0040     4.8090 ca         1 31A      -0.064300
      7 C8           0.5290    -1.2010     5.3330 ca         1 31A      -0.149000
      8 C6          -0.3720    -1.2020     6.3880 ca         1 31A       0.144100
      9 O           -0.8140    -2.3780     6.9050 os         1 31A      -0.326900
     10 C7          -1.7400    -2.3030     7.9910 c3         1 31A       0.128700
     11 C5          -0.8210     0.0010     6.9140 ca         1 31A      -0.216000
     12 C4          -0.3710     1.1950     6.3870 ca         1 31A      -0.087000
     13 C3           0.5320     1.1930     5.3390 ca         1 31A      -0.158000
     14 N           -0.0900    -0.0020     2.3590 n2         1 31A      -0.794100
     15 C10          1.9530    -0.0040    -1.2770 ca         1 31A      -0.183600
     16 C20          3.3500    -0.0030    -1.2820 ca         1 31A      -0.073000
     17 C19          4.0330    -0.0080    -2.4790 ca         1 31A      -0.180000
     18 C18          3.3400    -0.0130    -3.6790 ca         1 31A      -0.066000
     19 C17          1.9590    -0.0140    -3.6890 ca         1 31A      -0.238000
     20 C11          1.2560    -0.0150    -2.4930 ca         1 31A       0.204100
     21 O2          -0.1000    -0.0230    -2.5010 os         1 31A      -0.276900
     22 C12         -0.7420     0.0920    -3.7720 c3         1 31A       0.135100
     23 C16         -2.1470     0.6720    -3.5860 c3         1 31A      -0.089900
     24 C15         -2.8520     0.7360    -4.9430 c3         1 31A       0.159800
     25 N2          -2.9320    -0.6130    -5.5180 n7         1 31A      -0.816200
     26 C14         -1.5950    -1.1720    -5.7510 c3         1 31A       0.159800
     27 C13         -0.8520    -1.2920    -4.4180 c3         1 31A      -0.089900
     28 H1           2.8910     0.0120     1.1670 hn         1 31A       0.319500
     29 H11C         2.5790    -0.8870     3.7200 hc         1 31A       0.063200
     30 H12C         2.5780     0.8820     3.7220 hc         1 31A       0.063200
     31 H           -0.5910    -0.0030     3.2250 hn         1 31A       0.413400
     32 H8           0.9200    -2.1380     4.9550 ha         1 31A       0.149000
     33 H3           0.8840     2.1310     4.9270 ha         1 31A       0.136000
     34 H5          -1.5260     0.0030     7.7360 ha         1 31A       0.137000
     35 H71C        -2.0080    -3.3040     8.3060 h1         1 31A       0.042700
     36 H72C        -1.2840    -1.7730     8.8180 h1         1 31A       0.042700
     37 H73C        -2.6300    -1.7750     7.6700 h1         1 31A       0.042700
     38 H4          -0.7200     2.1340     6.8000 ha         1 31A       0.134000
     39 H20          3.8960     0.0010    -0.3460 ha         1 31A       0.124000
     40 H19          5.1160    -0.0070    -2.4820 ha         1 31A       0.132000
     41 H18          3.8850    -0.0140    -4.6160 ha         1 31A       0.132000
     42 H17          1.4240    -0.0200    -4.6310 ha         1 31A       0.144000
     43 H12         -0.1660     0.7450    -4.4170 h1         1 31A       0.040700
     44 H161        -2.0730     1.6700    -3.1710 hc         1 31A       0.065950
     45 H162        -2.7140     0.0370    -2.9160 hc         1 31A       0.065950
     46 H131         0.1410    -1.6880    -4.5930 hc         1 31A       0.065950
     47 H132        -1.4000    -1.9550    -3.7580 hc         1 31A       0.065950
     48 H151        -3.8520     1.1310    -4.8110 h1         1 31A       0.032700
     49 H152        -2.2900     1.3780    -5.6110 h1         1 31A       0.032700
     50 H2          -3.4340    -0.5770    -6.3830 hn         1 31A       0.354800
     51 H141        -1.6890    -2.1540    -6.2000 h1         1 31A       0.032700
     52 H142        -1.0410    -0.5180    -6.4130 h1         1 31A       0.032700
@<TRIPOS>BOND
     1     1     2 2
     2     2     3 1
     3     2    15 1
     4     3     4 1
     5     4     5 1
     6     4    14 2
     7     5     6 1
     8     6     7 ar
     9     6    13 ar
    10     7     8 ar
    11     8     9 1
    12     8    11 ar
    13     9    10 1
    14    11    12 ar
    15    12    13 ar
    16    15    16 ar
    17    15    20 ar
    18    16    17 ar
    19    17    18 ar
    20    18    19 ar
    21    19    20 ar
    22    20    21 1
    23    21    22 1
    24    22    23 1
    25    22    27 1
    26    23    24 1
    27    24    25 1
    28    25    26 1
    29    26    27 1
    30     3    28 1
    31     5    29 1
    32     5    30 1
    33    14    31 1
    34     7    32 1
    35    13    33 1
    36    11    34 1
    37    10    35 1
    38    10    36 1
    39    10    37 1
    40    12    38 1
    41    16    39 1
    42    17    40 1
    43    18    41 1
    44    19    42 1
    45    22    43 1
    46    23    44 1
    47    23    45 1
    48    27    46 1
    49    27    47 1
    50    24    48 1
    51    24    49 1
    52    25    50 1
    53    26    51 1
    54    26    52 1
@<TRIPOS>SUBSTRUCTURE
     1 31A         1 TEMP              0 ****  ****    0 ROOT
