@<TRIPOS>MOLECULE
31A
   52    54     1     0     0
SMALL
bcc


@<TRIPOS>ATOM
      1 O1           0.0000     0.0000     0.0000 o          1 31A      -0.621100
      2 C9           1.2160     0.0000     0.0000 c          1 31A       0.601700
      3 N1           1.8900     0.0000     1.1670 ns         1 31A      -0.076400
      4 C            1.2020    -0.0020     2.3590 c2         1 31A       0.244900
      5 C1           1.9550    -0.0020     3.6640 c3         1 31A       0.011600
      6 C2           0.9770    -0.0040     4.8090 ca         1 31A      -0.022300
      7 C8           0.5290    -1.2010     5.3330 ca         1 31A      -0.124000
      8 C6          -0.3720    -1.2020     6.3880 ca         1 31A       0.152100
      9 O           -0.8140    -2.3780     6.9050 os         1 31A      -0.309900
     10 C7          -1.7400    -2.3030     7.9910 c3         1 31A       0.244700
     11 C5          -0.8210     0.0010     6.9140 ca         1 31A      -0.213000
     12 C4          -0.3710     1.1950     6.3870 ca         1 31A      -0.055000
     13 C3           0.5320     1.1930     5.3390 ca         1 31A      -0.129000
     14 N           -0.0900    -0.0020     2.3590 n2         1 31A      -0.718100
     15 C10          1.9530    -0.0040    -1.2770 ca         1 31A      -0.219600
     16 C20          3.3500    -0.0030    -1.2820 ca         1 31A      -0.039000
     17 C19          4.0330    -0.0080    -2.4790 ca         1 31A      -0.158000
     18 C18          3.3400    -0.0130    -3.6790 ca         1 31A      -0.022000
     19 C17          1.9590    -0.0140    -3.6890 ca         1 31A      -0.236000
     20 C11          1.2560    -0.0150    -2.4930 ca         1 31A       0.227100
     21 O2          -0.1000    -0.0230    -2.5010 os         1 31A      -0.248900
     22 C12         -0.7420     0.0920    -3.7720 c3         1 31A       0.155100
     23 C16         -2.1470     0.6720    -3.5860 c3         1 31A      -0.045900
     24 C15         -2.8520     0.7360    -4.9430 c3         1 31A       0.152800
     25 N2          -2.9320    -0.6130    -5.5180 n7         1 31A      -0.577200
     26 C14         -1.5950    -1.1720    -5.7510 c3         1 31A       0.152800
     27 C13         -0.8520    -1.2920    -4.4180 c3         1 31A      -0.045900
     28 H1           2.8910     0.0120     1.1670 hn         1 31A       0.173500
     29 H11C         2.5790    -0.8870     3.7200 hc         1 31A       0.019200
     30 H12C         2.5780     0.8820     3.7220 hc         1 31A       0.019200
     31 H           -0.5910    -0.0020     1.4920 hn         1 31A       0.412400
     32 H8           0.9180    -2.1380     4.9530 ha         1 31A       0.114000
     33 H3           0.8840     2.1310     4.9270 ha         1 31A       0.103000
     34 H5          -1.5260     0.0030     7.7360 ha         1 31A       0.117000
     35 H71C        -2.0080    -3.3040     8.3060 h1         1 31A      -0.003633
     36 H72C        -2.6300    -1.7750     7.6700 h1         1 31A      -0.003633
     37 H73C        -1.2840    -1.7730     8.8180 h1         1 31A      -0.003633
     38 H4          -0.7200     2.1340     6.8000 ha         1 31A       0.097000
     39 H20          3.8960     0.0010    -0.3460 ha         1 31A       0.100000
     40 H19          5.1160    -0.0070    -2.4820 ha         1 31A       0.110000
     41 H18          3.8850    -0.0140    -4.6160 ha         1 31A       0.101000
     42 H17          1.4240    -0.0200    -4.6310 ha         1 31A       0.133000
     43 H12         -0.1660     0.7450    -4.4170 h1         1 31A       0.017700
     44 H161        -2.7140     0.0370    -2.9160 hc         1 31A       0.035200
     45 H162        -2.0730     1.6700    -3.1710 hc         1 31A       0.035200
     46 H131        -1.4000    -1.9550    -3.7580 hc         1 31A       0.035200
     47 H132         0.1410    -1.6880    -4.5930 hc         1 31A       0.035200
     48 H151        -2.2900     1.3780    -5.6110 h1         1 31A       0.005450
     49 H152        -3.8520     1.1310    -4.8110 h1         1 31A       0.005450
     50 H2          -3.4340    -0.5770    -6.3830 hn         1 31A       0.252800
     51 H141        -1.0410    -0.5180    -6.4130 h1         1 31A       0.005450
     52 H142        -1.6890    -2.1540    -6.2000 h1         1 31A       0.005450
@<TRIPOS>BOND
     1     1     2 2   
     2     2     3 1   
     3     2    15 1   
     4     3     4 1   
     5     3    28 1   
     6     4     5 1   
     7     4    14 2   
     8     5     6 1   
     9     5    29 1   
    10     5    30 1   
    11     6     7 ar  
    12     6    13 ar  
    13     7     8 ar  
    14     7    32 1   
    15     8     9 1   
    16     8    11 ar  
    17     9    10 1   
    18    10    35 1   
    19    10    36 1   
    20    10    37 1   
    21    11    12 ar  
    22    11    34 1   
    23    12    13 ar  
    24    12    38 1   
    25    13    33 1   
    26    14    31 1   
    27    15    16 ar  
    28    15    20 ar  
    29    16    17 ar  
    30    16    39 1   
    31    17    18 ar  
    32    17    40 1   
    33    18    19 ar  
    34    18    41 1   
    35    19    20 ar  
    36    19    42 1   
    37    20    21 1   
    38    21    22 1   
    39    22    23 1   
    40    22    27 1   
    41    22    43 1   
    42    23    24 1   
    43    23    44 1   
    44    23    45 1   
    45    24    25 1   
    46    24    48 1   
    47    24    49 1   
    48    25    26 1   
    49    25    50 1   
    50    26    27 1   
    51    26    51 1   
    52    26    52 1   
    53    27    46 1   
    54    27    47 1   
@<TRIPOS>SUBSTRUCTURE
     1 31A         1 TEMP              0 ****  ****    0 ROOT
