@<TRIPOS>MOLECULE
31D
   54    56     1     0     0
SMALL
bcc


@<TRIPOS>ATOM
      1 CAZ          0.0000     0.0000     0.0000 c3         1 31D       0.004900
      2 CAY          1.5300     0.0000     0.0000 c3         1 31D      -0.016700
      3 CBA          2.0400     0.0000     1.4430 c3         1 31D       0.004900
      4 CBB          2.0410    -1.2490    -0.7210 c3         1 31D       0.004900
      5 CAV          2.0330     1.2310    -0.7100 ca         1 31D      -0.056300
      6 CAW          1.6960     2.4860    -0.2340 ca         1 31D      -0.122500
      7 CAX          2.1520     3.6160    -0.8790 ca         1 31D      -0.051000
      8 CAU          2.8330     1.1010    -1.8310 ca         1 31D      -0.122500
      9 CAT          3.2960     2.2240    -2.4850 ca         1 31D      -0.051000
     10 CAR          2.9550     3.4930    -2.0140 ca         1 31D      -0.167600
     11 CAQ          3.4480     4.7000    -2.7100 c          1 31D       0.589700
     12 OAS          4.1520     4.5890    -3.6950 o          1 31D      -0.663100
     13 NAP          3.1170     5.9230    -2.2530 ns         1 31D      -0.040100
     14 CAD          3.6730     7.0580    -2.8370 ca         1 31D      -0.008400
     15 CAC          4.8990     6.9800    -3.4830 ca         1 31D      -0.147000
     16 CAB          5.4490     8.1080    -4.0620 ca         1 31D      -0.063000
     17 CAA          4.7850     9.3210    -4.0010 ca         1 31D      -0.142000
     18 CAF          3.5670     9.4180    -3.3630 ca         1 31D      -0.064000
     19 CAE          2.9960     8.2860    -2.7790 ca         1 31D      -0.197600
     20 CAG          1.6900     8.3810    -2.0990 c          1 31D       0.584700
     21 OAI          1.2400     7.4170    -1.5090 o          1 31D      -0.679100
     22 NAH          0.9960     9.5360    -2.1320 ns         1 31D       0.009900
     23 CAJ         -0.2800     9.5980    -1.5750 ca         1 31D      -0.158400
     24 CAK         -1.2570    10.3930    -2.1670 ca         1 31D      -0.142500
     25 CAL         -2.5180    10.4570    -1.6200 ca         1 31D      -0.064500
     26 CAM         -2.8170     9.7200    -0.4690 ca         1 31D      -0.098600
     27 CBC         -4.1690     9.7860     0.1190 c          1 31D       0.972200
     28 OBE         -4.4550     9.0750     1.2280 o          1 31D      -0.883800
     29 OBD         -5.0220    10.4790    -0.3960 o          1 31D      -0.883800
     30 CAN         -1.8340     8.9220     0.1220 ca         1 31D      -0.064500
     31 CAO         -0.5760     8.8590    -0.4330 ca         1 31D      -0.142500
     32 H1          -0.3610     0.1740    -1.0060 hc         1 31D       0.007478
     33 H2          -0.3610     0.7840     0.6540 hc         1 31D       0.007478
     34 H3          -0.3610    -0.9590     0.3520 hc         1 31D       0.007478
     35 H4           1.5240     0.7660     2.0080 hc         1 31D       0.007478
     36 H5           3.1040     0.2020     1.4500 hc         1 31D       0.007478
     37 H6           1.8530    -0.9680     1.8920 hc         1 31D       0.007478
     38 H7           1.7020    -1.2360    -1.7500 hc         1 31D       0.007478
     39 H8           3.1240    -1.2620    -0.6970 hc         1 31D       0.007478
     40 H9           1.6580    -2.1340    -0.2260 hc         1 31D       0.007478
     41 H10          1.0730     2.5810     0.6470 ha         1 31D       0.117000
     42 H11          1.8850     4.5980    -0.5070 ha         1 31D       0.121500
     43 H12          3.0970     0.1150    -2.1950 ha         1 31D       0.117000
     44 H13          3.9200     2.1210    -3.3640 ha         1 31D       0.121500
     45 H14          2.5090     6.0140    -1.4640 hn         1 31D       0.235500
     46 H15          5.4240     6.0340    -3.5350 ha         1 31D       0.157000
     47 H16          6.4060     8.0420    -4.5660 ha         1 31D       0.097000
     48 H17          5.2260    10.2000    -4.4560 ha         1 31D       0.100000
     49 H18          3.0510    10.3700    -3.3200 ha         1 31D       0.102000
     50 H19          1.4090    10.3570    -2.5280 hn         1 31D       0.159500
     51 H20         -1.0240    10.9640    -3.0580 ha         1 31D       0.104500
     52 H21         -3.2780    11.0760    -2.0800 ha         1 31D       0.127000
     53 H23         -2.0640     8.3490     1.0120 ha         1 31D       0.127000
     54 H24          0.1870     8.2410     0.0250 ha         1 31D       0.104500
@<TRIPOS>BOND
     1     1     2 1   
     2     1    32 1   
     3     1    33 1   
     4     1    34 1   
     5     2     3 1   
     6     2     4 1   
     7     2     5 1   
     8     3    35 1   
     9     3    36 1   
    10     3    37 1   
    11     4    38 1   
    12     4    39 1   
    13     4    40 1   
    14     5     6 ar  
    15     5     8 ar  
    16     6     7 ar  
    17     6    41 1   
    18     7    10 ar  
    19     7    42 1   
    20     8     9 ar  
    21     8    43 1   
    22     9    10 ar  
    23     9    44 1   
    24    10    11 1   
    25    11    12 2   
    26    11    13 1   
    27    13    14 1   
    28    13    45 1   
    29    14    15 ar  
    30    14    19 ar  
    31    15    16 ar  
    32    15    46 1   
    33    16    17 ar  
    34    16    47 1   
    35    17    18 ar  
    36    17    48 1   
    37    18    19 ar  
    38    18    49 1   
    39    19    20 1   
    40    20    21 2   
    41    20    22 1   
    42    22    23 1   
    43    22    50 1   
    44    23    24 ar  
    45    23    31 ar  
    46    24    25 ar  
    47    24    51 1   
    48    25    26 ar  
    49    25    52 1   
    50    26    27 1   
    51    26    30 ar  
    52    27    28 1   
    53    27    29 1   
    54    30    31 ar  
    55    30    53 1   
    56    31    54 1   
@<TRIPOS>SUBSTRUCTURE
     1 31D         1 TEMP              0 ****  ****    0 ROOT
