@<TRIPOS>MOLECULE
molecule
   54    56     1     0     0
SMALL
bcc


@<TRIPOS>ATOM
      1 CAZ          0.0000     0.0000     0.0000 c3         1 31D      -0.080767
      2 CAY          1.5300     0.0000     0.0000 c3         1 31D      -0.027700
      3 CBA          2.0400     0.0000     1.4430 c3         1 31D      -0.080767
      4 CBB          2.0410    -1.2490    -0.7210 c3         1 31D      -0.080767
      5 CAV          2.0330     1.2310    -0.7100 ca         1 31D      -0.048300
      6 CAW          1.6960     2.4860    -0.2340 ca         1 31D      -0.141500
      7 CAX          2.1520     3.6160    -0.8790 ca         1 31D      -0.079000
      8 CAU          2.8330     1.1010    -1.8310 ca         1 31D      -0.141500
      9 CAT          3.2960     2.2240    -2.4850 ca         1 31D      -0.079000
     10 CAR          2.9550     3.4930    -2.0140 ca         1 31D      -0.155600
     11 CAQ          3.4480     4.7000    -2.7100 c          1 31D       0.676700
     12 OAS          4.1520     4.5890    -3.6950 o          1 31D      -0.618100
     13 NAP          3.1170     5.9230    -2.2530 ns         1 31D      -0.459100
     14 CAD          3.6730     7.0580    -2.8370 ca         1 31D       0.124600
     15 CAC          4.8990     6.9800    -3.4830 ca         1 31D      -0.158000
     16 CAB          5.4490     8.1080    -4.0620 ca         1 31D      -0.094000
     17 CAA          4.7850     9.3210    -4.0010 ca         1 31D      -0.168000
     18 CAF          3.5670     9.4180    -3.3630 ca         1 31D      -0.086000
     19 CAE          2.9960     8.2860    -2.7790 ca         1 31D      -0.187600
     20 CAG          1.6900     8.3810    -2.0990 c          1 31D       0.680700
     21 OAI          1.2400     7.4170    -1.5090 o          1 31D      -0.629100
     22 NAH          0.9960     9.5360    -2.1320 ns         1 31D      -0.452100
     23 CAJ         -0.2800     9.5980    -1.5750 ca         1 31D       0.001600
     24 CAK         -1.2570    10.3930    -2.1670 ca         1 31D      -0.166500
     25 CAL         -2.5180    10.4570    -1.6200 ca         1 31D      -0.091000
     26 CAM         -2.8170     9.7200    -0.4690 ca         1 31D      -0.106600
     27 CBC         -4.1690     9.7860     0.1190 c          1 31D       0.882200
     28 OBE         -4.4550     9.0750     1.2280 o          1 31D      -0.836800
     29 OBD         -5.0220    10.4790    -0.3960 o          1 31D      -0.836800
     30 CAN         -1.8340     8.9220     0.1220 ca         1 31D      -0.091000
     31 CAO         -0.5760     8.8590    -0.4330 ca         1 31D      -0.166500
     32 H1          -0.3610     0.1740    -1.0060 hc         1 31D       0.037367
     33 H2          -0.3610     0.7840     0.6540 hc         1 31D       0.037367
     34 H3          -0.3610    -0.9590     0.3520 hc         1 31D       0.037367
     35 H4           1.5240     0.7660     2.0080 hc         1 31D       0.037367
     36 H5           3.1040     0.2020     1.4500 hc         1 31D       0.037367
     37 H6           1.8530    -0.9680     1.8920 hc         1 31D       0.037367
     38 H7           1.7020    -1.2360    -1.7500 hc         1 31D       0.037367
     39 H8           3.1240    -1.2620    -0.6970 hc         1 31D       0.037367
     40 H9           1.6580    -2.1340    -0.2260 hc         1 31D       0.037367
     41 H10          1.0730     2.5810     0.6470 ha         1 31D       0.138000
     42 H11          1.8850     4.5980    -0.5070 ha         1 31D       0.148500
     43 H12          3.0970     0.1150    -2.1950 ha         1 31D       0.138000
     44 H13          3.9200     2.1210    -3.3640 ha         1 31D       0.148500
     45 H14          2.5090     6.0140    -1.4640 hn         1 31D       0.370500
     46 H15          5.4240     6.0340    -3.5350 ha         1 31D       0.174000
     47 H16          6.4060     8.0420    -4.5660 ha         1 31D       0.127000
     48 H17          5.2260    10.2000    -4.4560 ha         1 31D       0.125000
     49 H18          3.0510    10.3700    -3.3200 ha         1 31D       0.128000
     50 H19          1.4090    10.3570    -2.5280 hn         1 31D       0.314500
     51 H20         -1.0240    10.9640    -3.0580 ha         1 31D       0.121000
     52 H21         -3.2780    11.0760    -2.0800 ha         1 31D       0.153500
     53 H23         -2.0640     8.3490     1.0120 ha         1 31D       0.153500
     54 H24          0.1870     8.2410     0.0250 ha         1 31D       0.121000
@<TRIPOS>BOND
     1    12    11 2   
     2     4     2 1   
     3     1     2 1   
     4     9     8 ar  
     5     9    10 ar  
     6     8     5 ar  
     7    11    10 1   
     8    11    13 1   
     9    10     7 ar  
    10     5     2 1   
    11     5     6 ar  
    12     2     3 1   
    13     7     6 ar  
    14    13    14 1   
    15    29    27 1   
    16    24    25 ar  
    17    24    23 ar  
    18    22    23 1   
    19    22    20 1   
    20    14    15 ar  
    21    14    19 ar  
    22    15    16 ar  
    23    25    26 ar  
    24    23    31 ar  
    25    26    27 1   
    26    26    30 ar  
    27    31    30 ar  
    28    27    28 1   
    29    19    20 1   
    30    19    18 ar  
    31    20    21 2   
    32    16    17 ar  
    33    18    17 ar  
    34     1    32 1   
    35     1    33 1   
    36     1    34 1   
    37     3    35 1   
    38     3    36 1   
    39     3    37 1   
    40     4    38 1   
    41     4    39 1   
    42     4    40 1   
    43     6    41 1   
    44     7    42 1   
    45     8    43 1   
    46     9    44 1   
    47    13    45 1   
    48    15    46 1   
    49    16    47 1   
    50    17    48 1   
    51    18    49 1   
    52    22    50 1   
    53    24    51 1   
    54    25    52 1   
    55    30    53 1   
    56    31    54 1   
@<TRIPOS>SUBSTRUCTURE
     1 31D         1 TEMP              0 ****  ****    0 ROOT
