@<TRIPOS>MOLECULE
molecule
   33    35     1     0     0
SMALL
bcc


@<TRIPOS>ATOM
      1 OAB          0.0000     0.0000     0.0000 o          1 31F      -0.516300
      2 OAD          2.1980     0.0000     1.1900 o          1 31F      -0.516300
      3 CAE          1.9190    -1.4180    -0.9190 ca         1 31F      -0.341500
      4 CAF          1.0610    -1.9690    -1.8550 ca         1 31F      -0.028000
      5 CAG          1.4470    -3.0760    -2.5810 ca         1 31F      -0.110500
      6 CAJ          3.1690    -1.9720    -0.7070 ca         1 31F      -0.028000
      7 CAI          3.5680    -3.0790    -1.4280 ca         1 31F      -0.110500
      8 CAH          2.7070    -3.6390    -2.3730 ca         1 31F      -0.018900
      9 CAK          3.1270    -4.8250    -3.1480 cc         1 31F       0.494500
     10 CAT          2.6080    -6.4070    -4.7640 ca         1 31F       0.172400
     11 CAS          1.7140    -6.9410    -5.6960 ca         1 31F      -0.101000
     12 CAR          2.0710    -8.0370    -6.4290 ca         1 31F      -0.101000
     13 CAQ          3.3140    -8.6340    -6.2640 ca         1 31F      -0.133000
     14 CAP          4.2170    -8.1300    -5.3530 ca         1 31F      -0.054000
     15 CAO          3.8740    -7.0130    -4.5950 ca         1 31F      -0.168600
     16 CAM          4.7930    -6.4360    -3.6040 c          1 31F       0.708100
     17 N10          1.8880     1.3330    -0.8630 nz         1 31F      -0.806500
     18 N1           4.3680    -5.3500    -2.9160 ns         1 31F      -0.474400
     19 OAN          5.8970    -6.9120    -3.4120 o          1 31F      -0.593500
     20 N            2.2920    -5.3280    -4.0210 nd         1 31F      -0.602100
     21 S            1.4200     0.0000     0.0000 sy         1 31F       1.227200
     22 HAJ          3.8340    -1.5380     0.0290 ha         1 31F       0.159500
     23 HAF          0.0820    -1.5330    -2.0130 ha         1 31F       0.159500
     24 HAI          4.5170    -3.5530    -1.2110 ha         1 31F       0.177500
     25 HAG          0.7460    -3.5520    -3.2570 ha         1 31F       0.177500
     26 H1           4.9670    -4.9280    -2.2330 hn         1 31F       0.335500
     27 HAS          0.7210    -6.5660    -5.9150 ha         1 31F       0.152000
     28 HAR          1.3850    -8.4580    -7.1550 ha         1 31F       0.147000
     29 HAQ          3.5430    -9.5010    -6.8710 ha         1 31F       0.150000
     30 HAP          5.1320    -8.7100    -5.3520 ha         1 31F       0.166000
     31 H101         1.6210     2.1610    -0.3680 hn         1 31F       0.492467
     32 H102         1.4440     1.3230    -1.7590 hn         1 31F       0.492467
     33 H103         2.8810     1.3220    -0.9820 hn         1 31F       0.492467
@<TRIPOS>BOND
     1     1    21 2   
     2     2    21 2   
     3     3     6 ar  
     4     3     4 ar  
     5     3    21 1   
     6     6     7 ar  
     7     7     8 ar  
     8     4     5 ar  
     9     5     8 ar  
    10     8     9 1   
    11     9    18 1   
    12     9    20 2   
    13    10    11 ar  
    14    10    15 ar  
    15    10    20 1   
    16    11    12 ar  
    17    12    13 ar  
    18    13    14 ar  
    19    14    15 ar  
    20    15    16 1   
    21    16    18 1   
    22    16    19 2   
    23    17    21 1   
    24     6    22 1   
    25     4    23 1   
    26     7    24 1   
    27     5    25 1   
    28    18    26 1   
    29    11    27 1   
    30    12    28 1   
    31    13    29 1   
    32    14    30 1   
    33    17    31 1   
    34    17    32 1   
    35    33    17 1   
@<TRIPOS>SUBSTRUCTURE
     1 31F         1 TEMP              0 ****  ****    0 ROOT
