@<TRIPOS>MOLECULE
molecule
   37    39     1     0     0
SMALL
bcc


@<TRIPOS>ATOM
      1 C1           0.0000     0.0000     0.0000 ca         1 31G      -0.176000
      2 C2           1.3830     0.0000     0.0000 ca         1 31G      -0.095000
      3 C3           2.0740     0.0000     1.1970 ca         1 31G      -0.146300
      4 C4           1.3820    -0.0020     2.3940 ca         1 31G      -0.010000
      5 C5           0.0010    -0.0030     2.3950 ca         1 31G      -0.259500
      6 C6          -0.6910     0.0040     1.1980 ca         1 31G      -0.022000
      7 S1          -0.8800    -0.0050     3.9200 s6         1 31G       1.321100
      8 O1          -2.1620    -0.5500     3.6430 o          1 31G      -0.707533
      9 O2           0.0020    -0.5500     4.8930 o          1 31G      -0.707533
     10 C7           3.5820    -0.0000     1.1970 c3         1 31G       0.185700
     11 O3           4.0570     1.3480     1.1970 os         1 31G      -0.295900
     12 C8           5.4020     1.5260     1.1980 ca         1 31G       0.209100
     13 C9           6.2500     0.4360     1.1910 ca         1 31G      -0.271000
     14 C10          7.6300     0.6110     1.1850 ca         1 31G      -0.055000
     15 C11          8.1810     1.8590     1.1860 ca         1 31G      -0.243300
     16 C12          7.3530     2.9870     1.1930 ca         1 31G       0.489600
     17 C13          5.9460     2.8190     1.1990 ca         1 31G      -0.331600
     18 C14          5.1320     3.9760     1.2000 ca         1 31G       0.784200
     19 N1           5.7230     5.1630     1.2010 nb         1 31G      -0.801000
     20 C15          7.0480     5.2770     1.2020 ca         1 31G       0.947900
     21 N2           7.8540     4.2330     1.1940 nb         1 31G      -0.767000
     22 N3           7.6030     6.5430     1.2020 nv         1 31G      -1.064500
     23 N4           3.7570     3.8720     1.1990 nv         1 31G      -1.067500
     24 H1          -0.5420     0.0030    -0.9380 ha         1 31G       0.114000
     25 H2           1.9240    -0.0010    -0.9380 ha         1 31G       0.109000
     26 H3           1.9240    -0.0040     3.3320 ha         1 31G       0.153000
     27 H4          -1.7740     0.0040     1.1980 ha         1 31G       0.152000
     28 H6           3.9430    -0.5110     2.0810 h1         1 31G       0.037200
     29 H5           3.9430    -0.5110     0.3120 h1         1 31G       0.037200
     30 H7           5.8370    -0.5650     1.1910 ha         1 31G       0.140000
     31 H8           8.2770    -0.2580     1.1800 ha         1 31G       0.125000
     32 H9           9.2580     1.9760     1.1810 ha         1 31G       0.142000
     33 H11          7.7940     7.0060     0.3360 hn         1 31G       0.437800
     34 H10          7.8080     6.9990     2.0690 hn         1 31G       0.437800
     35 H12          3.2500     3.9360     2.0600 hn         1 31G       0.452800
     36 H13          3.2630     3.7910     0.3330 hn         1 31G       0.452800
     37 O4          -1.1070     1.4480     4.3120 o          1 31G      -0.707533
@<TRIPOS>BOND
     1     9     7 1   
     2    15    14 ar  
     3    15    16 ar  
     4    14    13 ar  
     5     7     8 1   
     6     7     5 1   
     7    16    21 ar  
     8    16    17 ar  
     9    21    20 ar  
    10    13    12 ar  
    11    12    17 ar  
    12    12    11 1   
    13    17    18 ar  
    14    20    22 1   
    15    20    19 ar  
    16     5     4 ar  
    17     5     6 ar  
    18     4     3 ar  
    19    11    10 1   
    20    18    19 ar  
    21    18    23 1   
    22     6     1 ar  
    23     3    10 1   
    24     3     2 ar  
    25     1     2 ar  
    26     1    24 1   
    27     2    25 1   
    28     4    26 1   
    29     6    27 1   
    30    10    28 1   
    31    10    29 1   
    32    13    30 1   
    33    14    31 1   
    34    15    32 1   
    35    22    33 1   
    36    22    34 1   
    37    23    35 1   
    38    23    36 1   
    39     7    37 1   
@<TRIPOS>SUBSTRUCTURE
     1 31G         1 TEMP              0 ****  ****    0 ROOT
