@<TRIPOS>MOLECULE
31G
   37    39     1     0     0
SMALL
bcc


@<TRIPOS>ATOM
      1 C1           0.0000     0.0000     0.0000 ca         1 31G      -0.165000
      2 C2           1.3830     0.0000     0.0000 ca         1 31G      -0.074000
      3 C3           2.0740     0.0000     1.1970 ca         1 31G      -0.182300
      4 C4           1.3820    -0.0020     2.3940 ca         1 31G       0.022000
      5 C5           0.0010    -0.0030     2.3950 ca         1 31G      -0.102500
      6 C6          -0.6910     0.0040     1.1980 ca         1 31G       0.009000
      7 S1          -0.8800    -0.0050     3.9200 s6         1 31G       1.027100
      8 O1          -2.1620    -0.5500     3.6430 o          1 31G      -0.655200
      9 O2           0.0020    -0.5500     4.8930 o          1 31G      -0.655200
     10 C7           3.5820    -0.0000     1.1970 c3         1 31G       0.267700
     11 O3           4.0570     1.3480     1.1970 os         1 31G      -0.279900
     12 C8           5.4020     1.5260     1.1980 ca         1 31G       0.222100
     13 C9           6.2500     0.4360     1.1910 ca         1 31G      -0.259000
     14 C10          7.6300     0.6110     1.1850 ca         1 31G      -0.022000
     15 C11          8.1810     1.8590     1.1860 ca         1 31G      -0.225300
     16 C12          7.3530     2.9870     1.1930 ca         1 31G       0.445600
     17 C13          5.9460     2.8190     1.1990 ca         1 31G      -0.325600
     18 C14          5.1320     3.9760     1.2000 ca         1 31G       0.603200
     19 N1           5.7230     5.1630     1.2010 nb         1 31G      -0.679000
     20 C15          7.0480     5.2770     1.2020 ca         1 31G       0.728900
     21 N2           7.8540     4.2330     1.1940 nb         1 31G      -0.650000
     22 N3           7.6030     6.5430     1.2020 nv         1 31G      -0.645500
     23 N4           3.7570     3.8720     1.1990 nv         1 31G      -0.646500
     24 H1          -0.5420     0.0030    -0.9380 ha         1 31G       0.090000
     25 H2           1.9240    -0.0010    -0.9380 ha         1 31G       0.085000
     26 H3           1.9240    -0.0040     3.3320 ha         1 31G       0.126000
     27 H4          -1.7740     0.0040     1.1980 ha         1 31G       0.123000
     28 H6           3.9430    -0.5110     2.0810 h1         1 31G       0.000200
     29 H5           3.9430    -0.5110     0.3120 h1         1 31G       0.000200
     30 H7           5.8370    -0.5650     1.1910 ha         1 31G       0.128000
     31 H8           8.2770    -0.2580     1.1800 ha         1 31G       0.094000
     32 H9           9.2580     1.9760     1.1810 ha         1 31G       0.116000
     33 H11          7.7940     7.0060     0.3360 hn         1 31G       0.273800
     34 H10          7.8080     6.9990     2.0690 hn         1 31G       0.273800
     35 H12          3.2500     3.9360     2.0600 hn         1 31G       0.293300
     36 H13          3.2630     3.7910     0.3330 hn         1 31G       0.293300
     37 O4          -1.1070     1.4480     4.3120 o          1 31G      -0.655200
@<TRIPOS>BOND
     1     1     2 ar  
     2     1     6 ar  
     3     1    24 1   
     4     2     3 ar  
     5     2    25 1   
     6     3     4 ar  
     7     3    10 1   
     8     4     5 ar  
     9     4    26 1   
    10     5     6 ar  
    11     5     7 1   
    12     6    27 1   
    13     7     8 1   
    14     7     9 1   
    15     7    37 1   
    16    10    11 1   
    17    10    28 1   
    18    10    29 1   
    19    11    12 1   
    20    12    13 ar  
    21    12    17 ar  
    22    13    14 ar  
    23    13    30 1   
    24    14    15 ar  
    25    14    31 1   
    26    15    16 ar  
    27    15    32 1   
    28    16    17 ar  
    29    16    21 ar  
    30    17    18 ar  
    31    18    19 ar  
    32    18    23 1   
    33    19    20 ar  
    34    20    21 ar  
    35    20    22 1   
    36    22    33 1   
    37    22    34 1   
    38    23    35 1   
    39    23    36 1   
@<TRIPOS>SUBSTRUCTURE
     1 31G         1 TEMP              0 ****  ****    0 ROOT
