@<TRIPOS>MOLECULE
31I
   66    71     1     0     0
SMALL
bcc


@<TRIPOS>ATOM
      1 O30          0.0000     0.0000     0.0000 o          1 31I      -0.438000
      2 C16          1.2180     0.0000     0.0000 c3         1 31I       0.378000
      3 N17          1.8920     0.0000     1.1660 n3         1 31I       0.022000
      4 N18          3.2950     0.0000     1.1730 n2         1 31I      -0.097000
      5 C19          3.9400     0.5970     2.1320 c2         1 31I      -0.032000
      6 C25          3.1870     1.2680     3.2070 ca         1 31I      -0.106000
      7 C26          3.8130     2.1760     4.0590 ca         1 31I      -0.062000
      8 C27          3.0850     2.7920     5.0570 ca         1 31I      -0.103000
      9 C28          1.7390     2.5130     5.2100 ca         1 31I      -0.077000
     10 C29          1.1090     1.6120     4.3670 ca         1 31I      -0.087000
     11 C24          1.8250     0.9900     3.3700 ca         1 31I      -0.075000
     12 C20          1.1640     0.0060     2.4420 c3         1 31I      -0.013000
     13 C11          1.2070    -1.3900     3.0660 c3         1 31I      -0.095000
     14 C08          0.5550    -2.3950     2.1140 c3         1 31I      -0.142500
     15 C01          2.6620    -1.7930     3.3130 c3         1 31I      -0.142500
     16 C15          1.9480    -0.0060    -1.2660 c2         1 31I      -0.100000
     17 C14          1.2730    -0.0110    -2.4350 c2         1 31I       0.024000
     18 C13          2.0070    -0.0180    -3.7090 c3         1 31I       0.030000
     19 C10          1.3100    -0.0170    -4.9260 c2         1 31I      -0.027000
     20 O11         -0.0480    -0.0110    -4.9330 os         1 31I      -0.196000
     21 C12         -0.7030    -1.2810    -4.9350 c3         1 31I       0.058000
     22 C07          2.0170    -0.0230    -6.1230 c2         1 31I       0.126000
     23 O08          1.3470    -0.0230    -7.3070 os         1 31I      -0.174000
     24 C09          2.1360    -0.0290    -8.4980 c3         1 31I       0.050000
     25 C06          3.4020    -0.0290    -6.1100 c2         1 31I      -0.236000
     26 C05          4.0910    -0.0290    -4.9090 c2         1 31I      -0.013000
     27 C04          5.5980    -0.0350    -4.9100 c3         1 31I       0.019000
     28 C03          6.1070     1.3840    -4.9130 c2         1 31I      -0.282000
     29 C32          6.4350     2.0140    -6.0990 c2         1 31I       0.029000
     30 N33          6.8780     3.2620    -6.0680 n2         1 31I      -0.160000
     31 C34          7.0090     3.9100    -4.9200 c2         1 31I       0.038000
     32 N35          7.4750     5.2130    -4.9300 nv         1 31I      -0.039000
     33 N36          6.7050     3.3420    -3.7630 n2         1 31I      -0.178000
     34 C02          6.2500     2.0950    -3.7200 c2         1 31I       0.029000
     35 N01          5.9260     1.5050    -2.5090 nv         1 31I       0.068000
     36 C31          3.4070    -0.0180    -3.7130 c2         1 31I      -0.202000
     37 H1           5.0230     0.6000     2.1410 h4         1 31I       0.130000
     38 H2           4.8670     2.3960     3.9400 ha         1 31I       0.108000
     39 H3           3.5680     3.4980     5.7210 ha         1 31I       0.108000
     40 H4           1.1740     3.0000     5.9950 ha         1 31I       0.106000
     41 H5           0.0540     1.3980     4.4920 ha         1 31I       0.114000
     42 H6           0.1370     0.3030     2.2720 h1         1 31I       0.119000
     43 H7           0.6690    -1.3830     4.0070 hc         1 31I       0.075000
     44 H8          -0.3270    -1.9510     1.6690 hc         1 31I       0.055167
     45 H9           1.2580    -2.6620     1.3340 hc         1 31I       0.055167
     46 H10          0.2730    -3.2840     2.6660 hc         1 31I       0.055167
     47 H11          3.1250    -1.0800     3.9850 hc         1 31I       0.055167
     48 H12          2.6930    -2.7810     3.7580 hc         1 31I       0.055167
     49 H13          3.1990    -1.8040     2.3720 hc         1 31I       0.055167
     50 H14          1.4830     0.8710    -0.8330 DU         1 31I       0.018000
     51 H15          1.7390     0.8610    -2.8770 DU         1 31I       0.090000
     52 H16         -1.5690    -1.2420    -4.2860 h1         1 31I       0.033000
     53 H17         -0.0180    -2.0410    -4.5770 h1         1 31I       0.033000
     54 H18         -1.0170    -1.5240    -5.9430 h1         1 31I       0.033000
     55 H19          2.8010    -0.8840    -8.4860 h1         1 31I       0.038000
     56 H20          2.7190     0.8820    -8.5490 h1         1 31I       0.038000
     57 H21          1.4850    -0.0910    -9.3610 h1         1 31I       0.038000
     58 H22          3.9490    -0.0340    -7.0450 ha         1 31I       0.128000
     59 H23          5.9580    -0.5450    -4.0250 hc         1 31I       0.061000
     60 H24          5.9570    -0.5490    -5.7940 hc         1 31I       0.061000
     61 H25          6.3320     1.4930    -7.0430 h4         1 31I       0.116000
     62 H26          6.8320     5.9740    -5.0270 hn         1 31I       0.074500
     63 H27          8.4540     5.3960    -4.8310 hn         1 31I       0.074500
     64 H28          5.7080     0.5290    -2.4710 hn         1 31I       0.076000
     65 H29          5.9770     2.0390    -1.6640 hn         1 31I       0.076000
     66 H30          3.9530    -0.0180    -2.7770 ha         1 31I       0.129000
@<TRIPOS>BOND
     1     1     2 1   
     2     2     3 1   
     3     2    16 1   
     4     2    50 1   
     5     3     4 1   
     6     3    12 1   
     7     4     5 1   
     8     5     6 1   
     9     5    37 1   
    10     6     7 1   
    11     6    11 1   
    12     7     8 1   
    13     7    38 1   
    14     8     9 1   
    15     8    39 1   
    16     9    10 1   
    17     9    40 1   
    18    10    11 1   
    19    10    41 1   
    20    11    12 1   
    21    12    13 1   
    22    12    42 1   
    23    13    14 1   
    24    13    15 1   
    25    13    43 1   
    26    14    44 1   
    27    14    45 1   
    28    14    46 1   
    29    15    47 1   
    30    15    48 1   
    31    15    49 1   
    32    16    17 1   
    33    16    50 1   
    34    17    18 1   
    35    17    51 1   
    36    18    19 1   
    37    18    36 1   
    38    18    51 1   
    39    19    20 1   
    40    19    22 1   
    41    20    21 1   
    42    21    52 1   
    43    21    53 1   
    44    21    54 1   
    45    22    23 1   
    46    22    25 1   
    47    23    24 1   
    48    24    55 1   
    49    24    56 1   
    50    24    57 1   
    51    25    26 1   
    52    25    58 1   
    53    26    27 1   
    54    26    36 1   
    55    27    28 1   
    56    27    59 1   
    57    27    60 1   
    58    28    29 1   
    59    28    34 1   
    60    29    30 1   
    61    29    61 1   
    62    30    31 1   
    63    31    32 1   
    64    31    33 1   
    65    32    62 1   
    66    32    63 1   
    67    33    34 1   
    68    34    35 1   
    69    35    64 1   
    70    35    65 1   
    71    36    66 1   
@<TRIPOS>SUBSTRUCTURE
     1 31I         1 TEMP              0 ****  ****    0 ROOT
