@<TRIPOS>MOLECULE
molecule
   66    69     1     0     0
SMALL
bcc


@<TRIPOS>ATOM
      1 O30          0.0000     0.0000     0.0000 o          1 31I      -0.609100
      2 C16          1.2180     0.0000     0.0000 c          1 31I       0.699300
      3 N17          1.8920     0.0000     1.1660 n          1 31I      -0.246800
      4 N18          3.2950     0.0000     1.1730 n2         1 31I      -0.451300
      5 C19          3.9400     0.5970     2.1320 ce         1 31I       0.419800
      6 C25          3.1870     1.2680     3.2070 ca         1 31I      -0.179900
      7 C26          3.8130     2.1760     4.0590 ca         1 31I      -0.098000
      8 C27          3.0850     2.7920     5.0570 ca         1 31I      -0.131000
      9 C28          1.7390     2.5130     5.2100 ca         1 31I      -0.109000
     10 C29          1.1090     1.6120     4.3670 ca         1 31I      -0.118000
     11 C24          1.8250     0.9900     3.3700 ca         1 31I      -0.072300
     12 C20          1.1640     0.0060     2.4420 c3         1 31I       0.145000
     13 C11          1.2070    -1.3900     3.0660 c3         1 31I      -0.081700
     14 C08          0.5550    -2.3950     2.1140 c3         1 31I      -0.096600
     15 C01          2.6620    -1.7930     3.3130 c3         1 31I      -0.096600
     16 C15          1.9480    -0.0060    -1.2660 cf         1 31I      -0.235200
     17 C14          1.2730    -0.0110    -2.4350 ce         1 31I      -0.024200
     18 C13          2.0070    -0.0180    -3.7090 ca         1 31I      -0.056800
     19 C10          1.3100    -0.0170    -4.9260 ca         1 31I       0.102100
     20 O11         -0.0480    -0.0110    -4.9330 os         1 31I      -0.336900
     21 C12         -0.7030    -1.2810    -4.9350 c3         1 31I       0.133700
     22 C07          2.0170    -0.0230    -6.1230 ca         1 31I       0.126100
     23 O08          1.3470    -0.0230    -7.3070 os         1 31I      -0.313900
     24 C09          2.1360    -0.0290    -8.4980 c3         1 31I       0.125700
     25 C06          3.4020    -0.0290    -6.1100 ca         1 31I      -0.199000
     26 C05          4.0910    -0.0290    -4.9090 ca         1 31I      -0.052300
     27 C04          5.5980    -0.0350    -4.9100 c3         1 31I       0.029200
     28 C03          6.1070     1.3840    -4.9130 ca         1 31I      -0.414900
     29 C32          6.4350     2.0140    -6.0990 ca         1 31I       0.501200
     30 N33          6.8780     3.2620    -6.0680 nb         1 31I      -0.789000
     31 C34          7.0090     3.9100    -4.9200 ca         1 31I       0.970900
     32 N35          7.4750     5.2130    -4.9300 nv         1 31I      -1.060500
     33 N36          6.7050     3.3420    -3.7630 nb         1 31I      -0.817000
     34 C02          6.2500     2.0950    -3.7200 ca         1 31I       0.748200
     35 N01          5.9260     1.5050    -2.5090 nv         1 31I      -1.005500
     36 C31          3.4070    -0.0180    -3.7130 ca         1 31I      -0.140000
     37 H1           5.0230     0.6000     2.1410 h4         1 31I       0.048800
     38 H2           4.8670     2.3960     3.9400 ha         1 31I       0.134000
     39 H3           3.5680     3.4980     5.7210 ha         1 31I       0.135000
     40 H4           1.1740     3.0000     5.9950 ha         1 31I       0.135000
     41 H5           0.0540     1.3980     4.4920 ha         1 31I       0.140000
     42 H6           0.1370     0.3030     2.2720 h1         1 31I       0.104700
     43 H7           0.6690    -1.3820     4.0070 hc         1 31I       0.058700
     44 H8          -0.3860    -1.9960     1.7570 hc         1 31I       0.041367
     45 H9           1.2140    -2.5750     1.2730 hc         1 31I       0.041367
     46 H10          0.3770    -3.3260     2.6390 hc         1 31I       0.041367
     47 H11          2.6920    -2.7560     3.8080 hc         1 31I       0.041367
     48 H12          3.1850    -1.8580     2.3670 hc         1 31I       0.041367
     49 H13          3.1410    -1.0510     3.9400 hc         1 31I       0.041367
     50 H14          3.0320    -0.0070    -1.2660 ha         1 31I       0.144000
     51 H15          0.1890    -0.0110    -2.4350 ha         1 31I       0.167000
     52 H16         -1.2070    -1.4270    -5.8830 h1         1 31I       0.037700
     53 H17         -1.4280    -1.3150    -4.1310 h1         1 31I       0.037700
     54 H18          0.0310    -2.0660    -4.7920 h1         1 31I       0.037700
     55 H19          2.7710    -0.9070    -8.5060 h1         1 31I       0.042700
     56 H20          2.7510     0.8620    -8.5280 h1         1 31I       0.042700
     57 H21          1.4840    -0.0480    -9.3630 h1         1 31I       0.042700
     58 H22          3.9490    -0.0340    -7.0450 ha         1 31I       0.139000
     59 H23          5.9580    -0.5450    -4.0240 hc         1 31I       0.052200
     60 H24          5.9570    -0.5490    -5.7930 hc         1 31I       0.052200
     61 H25          6.3320     1.4930    -7.0430 h4         1 31I       0.023100
     62 H26          8.4460     5.3990    -4.7750 hn         1 31I       0.444800
     63 H27          6.8440     5.9690    -5.1090 hn         1 31I       0.444800
     64 H28          5.6760     0.5360    -2.4750 hn         1 31I       0.444300
     65 H29          5.9590     2.0430    -1.6660 hn         1 31I       0.444300
     66 H30          3.9530    -0.0180    -2.7770 ha         1 31I       0.135000
@<TRIPOS>BOND
     1    15    13 1
     2    13    14 1
     3    13    12 1
     4    20    21 1
     5    20    19 1
     6     1     2 2
     7    12     3 1
     8    12    11 1
     9    23    22 1
    10    23    24 1
    11     2     3 1
    12     2    16 1
    13    19    22 ar
    14    19    18 ar
    15    17    16 2
    16    17    18 1
    17     3     4 1
    18    22    25 ar
    19    18    36 ar
    20    10    11 ar
    21    10     9 ar
    22    11     6 ar
    23     4     5 2
    24    30    29 ar
    25    30    31 ar
    26    25    26 ar
    27    29    28 ar
    28    36    26 ar
    29    32    31 1
    30     9     8 ar
    31    26    27 1
    32     6     5 1
    33     6     7 ar
    34    31    33 ar
    35    28    27 1
    36    28    34 ar
    37     8     7 ar
    38    33    34 ar
    39    34    35 1
    40     5    37 1
    41     7    38 1
    42     8    39 1
    43     9    40 1
    44    10    41 1
    45    12    42 1
    46    13    43 1
    47    14    44 1
    48    14    45 1
    49    14    46 1
    50    15    47 1
    51    15    48 1
    52    15    49 1
    53    16    50 1
    54    17    51 1
    55    21    52 1
    56    21    53 1
    57    21    54 1
    58    24    55 1
    59    24    56 1
    60    24    57 1
    61    25    58 1
    62    27    59 1
    63    27    60 1
    64    29    61 1
    65    32    62 1
    66    32    63 1
    67    35    64 1
    68    35    65 1
    69    36    66 1
@<TRIPOS>SUBSTRUCTURE
     1 31I         1 TEMP              0 ****  ****    0 ROOT
