@<TRIPOS>MOLECULE
molecule
   45    46     1     0     0
SMALL
bcc


@<TRIPOS>ATOM
      1 C21          0.0000     0.0000     0.0000 ca         1 31J       0.138100
      2 C23         -0.0250     0.0050    -2.3490 c          1 31J       0.742800
      3 C01          3.4800     1.7750    -9.6610 c3         1 31J       0.128700
      4 O02          2.9160     1.9420    -8.3590 os         1 31J      -0.415600
      5 C03          3.7720     2.6200    -7.4380 c3         1 31J       0.140400
      6 C04          3.0700     2.7410    -6.0830 c3         1 31J       0.143400
      7 O05          2.8750     1.4390    -5.5300 os         1 31J      -0.420600
      8 C06          2.2240     1.4380    -4.2570 c3         1 31J       0.143400
      9 C07          2.0700    -0.0010    -3.7640 c3         1 31J      -0.020200
     10 C08          1.3820    -0.0010    -2.4220 cc         1 31J      -0.226400
     11 C09          2.1170    -0.0010    -1.2800 cd         1 31J       0.019600
     12 C10          3.6240    -0.0020    -1.3290 c3         1 31J      -0.061900
     13 C11          1.4080     0.0000     0.0000 ca         1 31J      -0.116800
     14 C12          2.1080     0.0000     1.2120 ca         1 31J      -0.173000
     15 C13          1.4130     0.0020     2.4020 ca         1 31J       0.094100
     16 O14          2.0890     0.0030     3.5830 os         1 31J      -0.316900
     17 C15          3.5160     0.0030     3.5130 c3         1 31J       0.126700
     18 C16          0.0150     0.0020     2.3990 ca         1 31J       0.121100
     19 O17         -0.6620     0.0050     3.5770 oh         1 31J      -0.500100
     20 C18         -0.6850     0.0010     1.2060 ca         1 31J      -0.084300
     21 C19         -2.1920     0.0020     1.2160 c3         1 31J      -0.042800
     22 O22         -0.6710     0.0050    -1.1730 os         1 31J      -0.300200
     23 O24         -0.6730     0.0100    -3.3810 o          1 31J      -0.576500
     24 H1           4.3820     1.1790    -9.5910 h1         1 31J       0.029033
     25 H2           2.7650     1.2740   -10.3020 h1         1 31J       0.029033
     26 H3           3.7200     2.7460   -10.0780 h1         1 31J       0.029033
     27 H4           3.9980     3.6090    -7.8170 h1         1 31J       0.030700
     28 H5           4.6910     2.0590    -7.3190 h1         1 31J       0.030700
     29 H6           2.1090     3.2240    -6.2160 h1         1 31J       0.032200
     30 H7           3.6810     3.3310    -5.4110 h1         1 31J       0.032200
     31 H8           1.2460     1.8940    -4.3520 h1         1 31J       0.027200
     32 H9           2.8170     2.0020    -3.5480 h1         1 31J       0.027200
     33 H10          1.4770    -0.5650    -4.4730 hc         1 31J       0.072200
     34 H11          3.0480    -0.4570    -3.6680 hc         1 31J       0.072200
     35 H12          4.0140    -0.4700    -0.4340 hc         1 31J       0.056700
     36 H13          3.9840     1.0180    -1.3890 hc         1 31J       0.056700
     37 H14          3.9570    -0.5540    -2.2000 hc         1 31J       0.056700
     38 H15          3.1860     0.1040     1.2150 ha         1 31J       0.148000
     39 H16          3.8520     0.8980     3.0020 h1         1 31J       0.043367
     40 H17          3.8510    -0.8710     2.9690 h1         1 31J       0.043367
     41 H18          3.9260    -0.0160     4.5150 h1         1 31J       0.043367
     42 H19         -0.6920     0.8830     3.9200 ho         1 31J       0.425000
     43 H20         -2.5470    -0.4710     2.1240 hc         1 31J       0.057367
     44 H21         -2.5590    -0.5460     0.3560 hc         1 31J       0.057367
     45 H22         -2.5530     1.0220     1.1750 hc         1 31J       0.057367
@<TRIPOS>BOND
     1     5     6 1   
     2     5     4 1   
     3     6     7 1   
     4     3     4 1   
     5     8     7 1   
     6     8     9 1   
     7     9    10 1   
     8    23     2 2   
     9    10     2 1   
    10    10    11 2   
    11     2    22 1   
    12    12    11 1   
    13    11    13 1   
    14    22     1 1   
    15    13     1 ar  
    16    13    14 ar  
    17     1    20 ar  
    18    14    15 ar  
    19    20    21 1   
    20    20    18 ar  
    21    15    18 ar  
    22    15    16 1   
    23    18    19 1   
    24    17    16 1   
    25     3    24 1   
    26     3    25 1   
    27     3    26 1   
    28     5    27 1   
    29     5    28 1   
    30     6    29 1   
    31     6    30 1   
    32     8    31 1   
    33     8    32 1   
    34     9    33 1   
    35     9    34 1   
    36    12    35 1   
    37    12    36 1   
    38    12    37 1   
    39    14    38 1   
    40    17    39 1   
    41    17    40 1   
    42    17    41 1   
    43    19    42 1   
    44    21    43 1   
    45    21    44 1   
    46    21    45 1   
@<TRIPOS>SUBSTRUCTURE
     1 31J         1 TEMP              0 ****  ****    0 ROOT
