@<TRIPOS>MOLECULE
31J
   45    46     1     0     0
SMALL
bcc


@<TRIPOS>ATOM
      1 C21         0.0110   -0.1360    0.1200 ca        1 31J      0.155100
      2 C23        -0.2750   -0.4270   -2.2310 c         1 31J      0.722800
      3 C01         4.5640    2.9040   -9.4310 c3        1 31J      0.118700
      4 O02         3.8470    3.0770   -8.2210 os        1 31J     -0.425600
      5 C03         3.5000    1.8330   -7.6140 c3        1 31J      0.125400
      6 C04         2.7100    2.1890   -6.3590 c3        1 31J      0.128400
      7 O05         2.5600    0.9690   -5.6360 os        1 31J     -0.430600
      8 C06         1.8190    1.1510   -4.4300 c3        1 31J      0.135400
      9 C07         1.6110   -0.2420   -3.8480 c3        1 31J     -0.038200
     10 C08         1.1490   -0.1740   -2.4360 cc        1 31J     -0.204400
     11 C09         1.9580    0.0830   -1.3720 cd        1 31J      0.050600
     12 C10         3.4100    0.3460   -1.5100 c3        1 31J     -0.077900
     13 C11         1.3880    0.1020   -0.0380 ca        1 31J     -0.148800
     14 C12         2.1640    0.3550    1.1100 ca        1 31J     -0.120000
     15 C13         1.5680    0.3610    2.3600 ca        1 31J      0.023100
     16 O14         2.2270    0.6260    3.5510 os        1 31J     -0.347900
     17 C15         3.6470    0.5390    3.5050 c3        1 31J      0.119700
     18 C16         0.1740    0.1180    2.5070 ca        1 31J      0.153100
     19 O17        -0.4390    0.1280    3.7330 oh        1 31J     -0.484100
     20 C18        -0.6230   -0.1330    1.3850 ca        1 31J     -0.099300
     21 C19        -2.0760   -0.3800    1.5070 c3        1 31J     -0.041800
     22 O22        -0.8190   -0.3960   -0.9490 os        1 31J     -0.317200
     23 O24        -1.1480   -0.6850   -3.0610 o         1 31J     -0.570500
     24 H1          4.7650    3.9460   -9.7860 h1        1 31J      0.034033
     25 H2          3.9470    2.3470  -10.1790 h1        1 31J      0.034033
     26 H3          5.5220    2.3590   -9.2480 h1        1 31J      0.034033
     27 H4          2.8770    1.2210   -8.3170 h1        1 31J      0.040200
     28 H5          4.4290    1.2630   -7.3500 h1        1 31J      0.040200
     29 H6          3.2680    2.9380   -5.7380 h1        1 31J      0.041200
     30 H7          1.7040    2.6060   -6.6260 h1        1 31J      0.041200
     31 H8          2.4080    1.8020   -3.7290 h1        1 31J      0.034200
     32 H9          0.8360    1.6420   -4.6520 h1        1 31J      0.034200
     33 H10         2.5710   -0.8220   -3.9180 hc        1 31J      0.076700
     34 H11         0.8530   -0.7860   -4.4740 hc        1 31J      0.076700
     35 H12         3.6540    1.3600   -1.1030 hc        1 31J      0.060033
     36 H13         3.7430    0.3120   -2.5770 hc        1 31J      0.060033
     37 H14         3.9920   -0.4190   -0.9370 hc        1 31J      0.060033
     38 H15         3.2420    0.5470    1.0060 ha        1 31J      0.146000
     39 H16         3.9750   -0.4390    3.0790 h1        1 31J      0.047367
     40 H17         4.0660    1.3870    2.9100 h1        1 31J      0.047367
     41 H18         3.9480    0.6280    4.5800 h1        1 31J      0.047367
     42 H19         0.2410    0.2620    4.4130 ho        1 31J      0.443000
     43 H20        -2.6380    0.5670    1.3060 hc        1 31J      0.058700
     44 H21        -2.4060   -1.1450    0.7600 hc        1 31J      0.058700
     45 H22        -2.3330   -0.7340    2.5350 hc        1 31J      0.058700
@<TRIPOS>BOND
     1    1   13 ar  
     2    1   20 ar  
     3    1   22 1   
     4    2   10 1   
     5    2   22 1   
     6    2   23 2   
     7    3    4 1   
     8    3   24 1   
     9    3   25 1   
    10    3   26 1   
    11    4    5 1   
    12    5    6 1   
    13    5   27 1   
    14    5   28 1   
    15    6    7 1   
    16    6   29 1   
    17    6   30 1   
    18    7    8 1   
    19    8    9 1   
    20    8   31 1   
    21    8   32 1   
    22    9   10 1   
    23    9   33 1   
    24    9   34 1   
    25   10   11 2   
    26   11   12 1   
    27   11   13 1   
    28   12   35 1   
    29   12   36 1   
    30   12   37 1   
    31   13   14 ar  
    32   14   15 ar  
    33   14   38 1   
    34   15   16 1   
    35   15   18 ar  
    36   16   17 1   
    37   17   39 1   
    38   17   40 1   
    39   17   41 1   
    40   18   19 1   
    41   18   20 ar  
    42   19   42 1   
    43   20   21 1   
    44   21   43 1   
    45   21   44 1   
    46   21   45 1   
@<TRIPOS>SUBSTRUCTURE
     1 31J         1 TEMP              0 ****  ****    0 ROOT
