@<TRIPOS>MOLECULE
31K
   40    42     1     0     0
SMALL
bcc


@<TRIPOS>ATOM
      1 C22          0.0000     0.0000     0.0000 ca         1 31K      -0.115000
      2 C19         -2.7310    -0.3130     2.3840 c3         1 31K       0.209400
      3 C18         -2.0490     0.4710     3.5220 c3         1 31K       0.097800
      4 C10          2.1370     0.0010    -1.2830 cp         1 31K       0.005000
      5 C13          2.0860     0.0000     1.2100 ca         1 31K      -0.108000
      6 C03          4.2230     0.0130    -2.4760 ca         1 31K      -0.080300
      7 C04          3.5340     0.0140    -3.6790 ca         1 31K       0.087100
      8 O05          4.2190     0.0200    -4.8540 oh         1 31K      -0.485100
      9 C06          2.1420     0.0080    -3.6870 ca         1 31K       0.116100
     10 O07          1.4670     0.0080    -4.8680 os         1 31K      -0.300900
     11 C08          0.0400     0.0010    -4.8010 c3         1 31K       0.242700
     12 C09          1.4440     0.0010    -2.4930 ca         1 31K      -0.202000
     13 C11          3.5310     0.0070    -1.2820 ca         1 31K      -0.126000
     14 C12          1.3930     0.0000     0.0000 cp         1 31K      -0.024000
     15 C14          1.3920    -0.0020     2.4000 ca         1 31K      -0.112000
     16 C15         -0.0010     0.0080     2.4050 ca         1 31K      -0.052400
     17 N16         -0.6640    -0.0010     3.6360 nh         1 31K      -0.355000
     18 C17          0.0770     0.7770     4.6380 c3         1 31K       0.170100
     19 O20         -2.0560     0.0100     1.1640 os         1 31K      -0.308900
     20 C21         -0.6940     0.0060     1.1980 ca         1 31K       0.120100
     21 H1          -0.5410    -0.0030    -0.9390 ha         1 31K       0.122000
     22 H2          -2.6530    -1.3770     2.5750 h1         1 31K       0.022200
     23 H3          -3.7730    -0.0240     2.3130 h1         1 31K       0.022200
     24 H4          -2.5690     0.2710     4.4510 h1         1 31K       0.026700
     25 H5          -2.0430     1.5250     3.2710 h1         1 31K       0.026700
     26 H6           3.1690    -0.0000     1.2140 ha         1 31K       0.114000
     27 H7           6.0890     0.9440    -2.9080 hc         1 31K       0.009367
     28 H8           6.0950    -0.8190    -3.0540 hc         1 31K       0.009367
     29 H9           6.0890    -0.0640    -1.4540 hc         1 31K       0.009367
     30 H10          4.2010     0.8870    -5.2240 ho         1 31K       0.399000
     31 H11         -0.3690     0.0020    -5.8040 h1         1 31K      -0.001967
     32 H12         -0.3000     0.8820    -4.2710 h1         1 31K      -0.001967
     33 H13         -0.2920    -0.8870    -4.2760 h1         1 31K      -0.001967
     34 H14          0.3600    -0.0040    -2.4970 ha         1 31K       0.132000
     35 H15          4.0710     0.0070    -0.3430 ha         1 31K       0.119000
     36 H16          1.9330    -0.0020     3.3390 ha         1 31K       0.117000
     37 H17         -0.5780     1.0160     5.4670 h1         1 31K       0.009700
     38 H18          0.4390     1.6930     4.1880 h1         1 31K       0.009700
     39 H19          0.9170     0.1950     4.9980 h1         1 31K       0.009700
     40 C01          5.7300     0.0190    -2.4730 c3         1 31K       0.071200
@<TRIPOS>BOND
     1     1    14 ar  
     2     1    20 ar  
     3     1    21 1   
     4     2     3 1   
     5     2    19 1   
     6     2    22 1   
     7     2    23 1   
     8     3    17 1   
     9     3    24 1   
    10     3    25 1   
    11     4    12 ar  
    12     4    13 ar  
    13     4    14 1   
    14     5    14 ar  
    15     5    15 ar  
    16     5    26 1   
    17     6     7 ar  
    18     6    13 ar  
    19     6    40 1   
    20     7     8 1   
    21     7     9 ar  
    22     8    30 1   
    23     9    10 1   
    24     9    12 ar  
    25    10    11 1   
    26    11    31 1   
    27    11    32 1   
    28    11    33 1   
    29    12    34 1   
    30    13    35 1   
    31    15    16 ar  
    32    15    36 1   
    33    16    17 1   
    34    16    20 ar  
    35    17    18 1   
    36    18    37 1   
    37    18    38 1   
    38    18    39 1   
    39    19    20 1   
    40    27    40 1   
    41    28    40 1   
    42    29    40 1   
@<TRIPOS>SUBSTRUCTURE
     1 31K         1 TEMP              0 ****  ****    0 ROOT
