@<TRIPOS>MOLECULE
31L
   43    45     1     0     0
SMALL
bcc


@<TRIPOS>ATOM
      1 C10          0.0000     0.0000     0.0000 cp         1 31L       0.007000
      2 C11          1.3930     0.0000     0.0000 ca         1 31L      -0.128000
      3 C12         -0.7440    -0.0060    -1.2840 cp         1 31L      -0.056000
      4 C14         -0.7420    -0.0240    -3.6840 ca         1 31L      -0.144500
      5 C15         -2.1310    -0.0300    -3.6810 ca         1 31L       0.022600
      6 C16         -2.8260    -0.0180    -2.4770 ca         1 31L      -0.144500
      7 C20         -3.1780    -1.1280    -7.0550 c3         1 31L       0.212900
      8 C22         -5.0090     0.0020    -6.0050 c3         1 31L       0.212900
      9 C23         -4.2820    -0.0460    -4.6570 c3         1 31L       0.093800
     10 C03          2.0850     0.0000     1.1950 ca         1 31L      -0.078300
     11 C04          1.3950     0.0010     2.3970 ca         1 31L       0.086100
     12 O05          2.0800     0.0020     3.5720 oh         1 31L      -0.485100
     13 C06          0.0020     0.0010     2.4040 ca         1 31L       0.117100
     14 O07         -0.6720     0.0020     3.5850 os         1 31L      -0.298900
     15 C08         -2.0990     0.0020     3.5160 c3         1 31L       0.242700
     16 C09         -0.6950     0.0000     1.2090 ca         1 31L      -0.204000
     17 C13         -0.0490    -0.0120    -2.4930 ca         1 31L      -0.070500
     18 C17         -2.1370    -0.0120    -1.2830 ca         1 31L      -0.070500
     19 N18         -2.8310    -0.0410    -4.8890 nh         1 31L      -0.357000
     20 C19         -2.4320    -1.1880    -5.7180 c3         1 31L       0.093800
     21 O21         -4.5860    -1.1020    -6.8080 os         1 31L      -0.409600
     22 H1           1.9340     0.0010    -0.9380 ha         1 31L       0.118000
     23 H2          -0.2020    -0.0310    -4.6230 ha         1 31L       0.118000
     24 H3          -3.9090    -0.0230    -2.4770 ha         1 31L       0.118000
     25 H4          -2.9310    -2.0020    -7.6450 h1         1 31L       0.014200
     26 H5          -2.8890    -0.2310    -7.5890 h1         1 31L       0.014200
     27 H6          -4.7700     0.9300    -6.5110 h1         1 31L       0.014200
     28 H7          -6.0780    -0.0600    -5.8400 h1         1 31L       0.014200
     29 H8          -4.5600    -0.9500    -4.1300 h1         1 31L       0.026950
     30 H9          -4.5560     0.8220    -4.0690 h1         1 31L       0.026950
     31 H10          3.9540    -0.8030     1.8220 hc         1 31L       0.010033
     32 H11          3.9530     0.9480     1.5730 hc         1 31L       0.010033
     33 H12          3.9510    -0.1430     0.1810 hc         1 31L       0.010033
     34 H13          2.0660     0.8690     3.9430 ho         1 31L       0.400000
     35 H14         -2.4360    -0.8830     2.9900 h1         1 31L      -0.002633
     36 H15         -2.4350     0.8860     2.9880 h1         1 31L      -0.002633
     37 H16         -2.5090     0.0030     4.5190 h1         1 31L      -0.002633
     38 H17         -1.7780    -0.0000     1.2130 ha         1 31L       0.130000
     39 H18          1.0340    -0.0080    -2.4950 ha         1 31L       0.110000
     40 H19         -2.6790    -0.0030    -0.3450 ha         1 31L       0.110000
     41 H20         -1.3650    -1.1490    -5.8990 h1         1 31L       0.026950
     42 H21         -2.6850    -2.1080    -5.2050 h1         1 31L       0.026950
     43 C01          3.5910     0.0010     1.1920 c3         1 31L       0.070200
@<TRIPOS>BOND
     1     1     2 ar  
     2     1     3 1   
     3     1    16 ar  
     4     2    10 ar  
     5     2    22 1   
     6     3    17 ar  
     7     3    18 ar  
     8     4     5 ar  
     9     4    17 ar  
    10     4    23 1   
    11     5     6 ar  
    12     5    19 1   
    13     6    18 ar  
    14     6    24 1   
    15     7    20 1   
    16     7    21 1   
    17     7    25 1   
    18     7    26 1   
    19     8     9 1   
    20     8    21 1   
    21     8    27 1   
    22     8    28 1   
    23     9    19 1   
    24     9    29 1   
    25     9    30 1   
    26    10    11 ar  
    27    10    43 1   
    28    11    12 1   
    29    11    13 ar  
    30    12    34 1   
    31    13    14 1   
    32    13    16 ar  
    33    14    15 1   
    34    15    35 1   
    35    15    36 1   
    36    15    37 1   
    37    16    38 1   
    38    17    39 1   
    39    18    40 1   
    40    19    20 1   
    41    20    41 1   
    42    20    42 1   
    43    31    43 1   
    44    32    43 1   
    45    33    43 1   
@<TRIPOS>SUBSTRUCTURE
     1 31L         1 TEMP              0 ****  ****    0 ROOT
