@<TRIPOS>MOLECULE
molecule
   43    45     1     0     0
SMALL
bcc


@<TRIPOS>ATOM
      1 C10          0.0000     0.0000     0.0000 cp         1 31L       0.004000
      2 C11          1.3930     0.0000     0.0000 ca         1 31L      -0.149000
      3 C12         -0.7440    -0.0060    -1.2840 cp         1 31L      -0.062000
      4 C14         -0.7420    -0.0240    -3.6840 ca         1 31L      -0.165500
      5 C15         -2.1310    -0.0300    -3.6810 ca         1 31L       0.107600
      6 C16         -2.8260    -0.0180    -2.4770 ca         1 31L      -0.165500
      7 C20         -3.1780    -1.1280    -7.0550 c3         1 31L       0.136900
      8 C22         -5.0090     0.0020    -6.0050 c3         1 31L       0.136900
      9 C23         -4.2820    -0.0460    -4.6570 c3         1 31L       0.125300
     10 C03          2.0850     0.0000     1.1950 ca         1 31L      -0.062300
     11 C04          1.3950     0.0010     2.3970 ca         1 31L       0.074100
     12 O05          2.0800     0.0020     3.5720 oh         1 31L      -0.506100
     13 C06          0.0020     0.0010     2.4040 ca         1 31L       0.116100
     14 O07         -0.6720     0.0020     3.5850 os         1 31L      -0.320900
     15 C08         -2.0990     0.0020     3.5160 c3         1 31L       0.127700
     16 C09         -0.6950     0.0000     1.2090 ca         1 31L      -0.212000
     17 C13         -0.0490    -0.0120    -2.4930 ca         1 31L      -0.093000
     18 C17         -2.1370    -0.0120    -1.2830 ca         1 31L      -0.093000
     19 N18         -2.8310    -0.0410    -4.8890 nh         1 31L      -0.595000
     20 C19         -2.4320    -1.1880    -5.7180 c3         1 31L       0.125300
     21 O21         -4.5860    -1.1020    -6.8080 os         1 31L      -0.422600
     22 H1           1.9340     0.0010    -0.9380 ha         1 31L       0.137000
     23 H2          -0.2020    -0.0310    -4.6230 ha         1 31L       0.137500
     24 H3          -3.9090    -0.0230    -2.4770 ha         1 31L       0.137500
     25 H4          -2.9310    -2.0020    -7.6450 h1         1 31L       0.055950
     26 H5          -2.8890    -0.2310    -7.5890 h1         1 31L       0.055950
     27 H6          -4.7700     0.9300    -6.5110 h1         1 31L       0.055950
     28 H7          -6.0780    -0.0600    -5.8400 h1         1 31L       0.055950
     29 H8          -4.5600    -0.9500    -4.1300 h1         1 31L       0.052200
     30 H9          -4.5560     0.8220    -4.0690 h1         1 31L       0.052200
     31 H10          3.9540    -0.8030     1.8220 hc         1 31L       0.047367
     32 H11          3.9530     0.9480     1.5730 hc         1 31L       0.047367
     33 H12          3.9510    -0.1430     0.1810 hc         1 31L       0.047367
     34 H13          2.0660     0.8690     3.9430 ho         1 31L       0.417000
     35 H14         -2.4360    -0.8830     2.9900 h1         1 31L       0.041700
     36 H15         -2.4350     0.8860     2.9880 h1         1 31L       0.041700
     37 H16         -2.5090     0.0030     4.5190 h1         1 31L       0.041700
     38 H17         -1.7780    -0.0000     1.2130 ha         1 31L       0.140000
     39 H18          1.0340    -0.0080    -2.4950 ha         1 31L       0.133500
     40 H19         -2.6790    -0.0030    -0.3450 ha         1 31L       0.133500
     41 H20         -1.3650    -1.1490    -5.8990 h1         1 31L       0.052200
     42 H21         -2.6850    -2.1080    -5.2050 h1         1 31L       0.052200
     43 C01          3.5910     0.0010     1.1920 c3         1 31L      -0.040800
@<TRIPOS>BOND
     1     7    20 1
     2     7    21 1
     3    20    19 1
     4    21     8 1
     5    19     9 1
     6    19     5 1
     7     8     9 1
     8     4     5 ar
     9     4    17 ar
    10     5     6 ar
    11    17     3 ar
    12     6    18 ar
    13     3    18 ar
    14     3     1 1
    15     2     1 ar
    16     2    10 ar
    17     1    16 ar
    18    43    10 1
    19    10    11 ar
    20    16    13 ar
    21    11    13 ar
    22    11    12 1
    23    13    14 1
    24    14    15 1
    25     2    22 1
    26     4    23 1
    27     6    24 1
    28     7    25 1
    29     7    26 1
    30     8    27 1
    31     8    28 1
    32     9    29 1
    33     9    30 1
    34    43    31 1
    35    43    32 1
    36    43    33 1
    37    12    34 1
    38    15    35 1
    39    15    36 1
    40    15    37 1
    41    16    38 1
    42    17    39 1
    43    18    40 1
    44    20    41 1
    45    20    42 1
@<TRIPOS>SUBSTRUCTURE
     1 31L         1 TEMP              0 ****  ****    0 ROOT
