@<TRIPOS>MOLECULE
31N
   65    70     1     0     0
SMALL
bcc


@<TRIPOS>ATOM
      1 C2           0.0000     0.0000     0.0000 ca         1 31N       0.207300
      2 C3           1.4160     0.0000     0.0000 ca         1 31N       0.337300
      3 C7           1.3500     0.0000    -2.3810 ca         1 31N      -0.000400
      4 C10          4.1110    -1.4390    -1.3070 c3         1 31N       0.204100
      5 C11          5.6300    -1.4390    -1.4890 c3         1 31N       0.147800
      6 C12          6.2850    -0.6850    -0.3280 c3         1 31N      -0.055400
      7 C13          7.8030    -0.6710    -0.5330 c3         1 31N      -0.014400
      8 C15          7.3740    -0.7530    -2.9870 c3         1 31N       0.183400
      9 C18          7.6770    -2.8740    -1.7150 c3         1 31N      -0.014400
     10 N19          9.5780    -1.3600    -2.0850 n7         1 31N      -0.557200
     11 C20         10.0400     0.0280    -2.2060 c3         1 31N       0.078500
     12 C21         11.5250     0.0460    -2.4640 ca         1 31N       0.368600
     13 C            0.0580    -0.0060     2.3800 ca         1 31N      -0.230300
     14 F            1.9630    -0.0010    -3.5840 f          1 31N      -0.117900
     15 N            2.0870     0.0000     1.1560 nb         1 31N      -0.643000
     16 C1          -0.6800    -0.0070     1.2360 ca         1 31N      -0.072300
     17 C4           1.4570    -0.0010     2.3110 ca         1 31N       0.638600
     18 N5          -0.6710    -0.0010    -1.1550 nb         1 31N      -0.526000
     19 C6          -0.0440    -0.0010    -2.3070 ca         1 31N       0.367200
     20 C8           2.0940     0.0010    -1.2340 ca         1 31N      -0.146600
     21 C14          8.1330    -1.4160    -1.8320 c3         1 31N       0.067200
     22 O16          5.9650    -0.8030    -2.7240 os         1 31N      -0.394600
     23 C17          6.1440    -2.8830    -1.5070 c3         1 31N      -0.055400
     24 N22         12.3610    -0.0190    -1.4450 nb         1 31N      -0.545000
     25 C23         13.6700    -0.0090    -1.6230 ca         1 31N       0.292200
     26 C24         14.2080     0.0730    -2.9080 ca         1 31N      -0.007200
     27 C25         13.3560     0.1420    -3.9970 ca         1 31N      -0.071000
     28 C26         11.9870     0.1220    -3.7630 ca         1 31N      -0.208300
     29 O27          3.7790    -2.0790    -0.0730 oh         1 31N      -0.572800
     30 N28         14.5370    -0.0810    -0.5290 ns         1 31N      -0.096400
     31 C29         15.8380     0.2420    -0.6970 c          1 31N       0.562500
     32 C30         16.3250     0.7100    -2.0440 c3         1 31N       0.148400
     33 O31         15.5560     0.0850    -3.0760 os         1 31N      -0.297900
     34 O32         16.6110     0.1570     0.2340 o          1 31N      -0.648500
     35 C33          3.6020     0.0050     3.3320 c3         1 31N       0.250700
     36 H1           3.9280     0.5130    -2.1850 hc         1 31N       0.052200
     37 H2           3.9920     0.5130    -0.4170 hc         1 31N       0.052200
     38 H3           3.6500    -1.9760    -2.1280 h1         1 31N       0.011700
     39 H4           6.0500    -1.1810     0.6060 hc         1 31N       0.031700
     40 H5           5.9130     0.3320    -0.3010 hc         1 31N       0.031700
     41 H6           8.2870    -1.1630     0.3020 hc         1 31N       0.025450
     42 H7           8.1510     0.3530    -0.6030 hc         1 31N       0.025450
     43 H8           7.5890    -1.2790    -3.9090 h1         1 31N       0.010200
     44 H9           7.6880     0.2800    -3.0790 h1         1 31N       0.010200
     45 H10          7.9260    -3.4100    -2.6230 hc         1 31N       0.025450
     46 H11          8.1640    -3.3430    -0.8680 hc         1 31N       0.025450
     47 H12          9.5250     0.5090    -3.0290 h1         1 31N       0.027200
     48 H13         -0.4370    -0.0070     3.3440 ha         1 31N       0.126000
     49 H14         -1.7620    -0.0110     1.2740 ha         1 31N       0.123000
     50 H15         -0.6230    -0.0010    -3.2230 h4         1 31N      -0.006900
     51 H16          5.6720    -3.4240    -2.3180 hc         1 31N       0.031700
     52 H17          5.9090    -3.3630    -0.5650 hc         1 31N       0.031700
     53 H18         13.7470     0.2010    -5.0060 ha         1 31N       0.124000
     54 H19         11.2960     0.3180    -4.5730 ha         1 31N       0.119000
     55 H20          3.3500    -2.9000    -0.2500 ho         1 31N       0.387000
     56 H21         14.2360    -0.5160     0.3210 hn         1 31N       0.193500
     57 H22         16.1910     1.7830    -2.1110 h1         1 31N       0.042200
     58 H23         17.3630     0.4200    -2.1590 h1         1 31N       0.042200
     59 H24          3.9030     0.8180     2.6820 h1         1 31N       0.003700
     60 H25          4.0510     0.1370     4.3090 h1         1 31N       0.003700
     61 H26          3.9300    -0.9370     2.9080 h1         1 31N       0.003700
     62 H27          9.7890    -1.8570    -2.9280 hn         1 31N       0.255800
     63 H28          9.8270     0.5610    -1.2870 h1         1 31N       0.027200
     64 C9           3.5990     0.0020    -1.2880 c3         1 31N       0.008900
     65 O            2.1780    -0.0000     3.4590 os         1 31N      -0.429100
@<TRIPOS>BOND
     1     1     2 ar  
     2     1    16 ar  
     3     1    18 ar  
     4     2    15 ar  
     5     2    20 ar  
     6     3    14 1   
     7     3    19 ar  
     8     3    20 ar  
     9     4     5 1   
    10     4    29 1   
    11     4    38 1   
    12     4    64 1   
    13     5     6 1   
    14     5    22 1   
    15     5    23 1   
    16     6     7 1   
    17     6    39 1   
    18     6    40 1   
    19     7    21 1   
    20     7    41 1   
    21     7    42 1   
    22     8    21 1   
    23     8    22 1   
    24     8    43 1   
    25     8    44 1   
    26     9    21 1   
    27     9    23 1   
    28     9    45 1   
    29     9    46 1   
    30    10    11 1   
    31    10    21 1   
    32    10    62 1   
    33    11    12 1   
    34    11    47 1   
    35    11    63 1   
    36    12    24 ar  
    37    12    28 ar  
    38    13    16 ar  
    39    13    17 ar  
    40    13    48 1   
    41    15    17 ar  
    42    16    49 1   
    43    17    65 1   
    44    18    19 ar  
    45    19    50 1   
    46    20    64 1   
    47    23    51 1   
    48    23    52 1   
    49    24    25 ar  
    50    25    26 ar  
    51    25    30 1   
    52    26    27 ar  
    53    26    33 1   
    54    27    28 ar  
    55    27    53 1   
    56    28    54 1   
    57    29    55 1   
    58    30    31 1   
    59    30    56 1   
    60    31    32 1   
    61    31    34 2   
    62    32    33 1   
    63    32    57 1   
    64    32    58 1   
    65    35    59 1   
    66    35    60 1   
    67    35    61 1   
    68    35    65 1   
    69    36    64 1   
    70    37    64 1   
@<TRIPOS>SUBSTRUCTURE
     1 31N         1 TEMP              0 ****  ****    0 ROOT
