@<TRIPOS>MOLECULE
31O
   51    54     1     0     0
SMALL
bcc


@<TRIPOS>ATOM
      1 CAW        -0.0130   -0.1770    0.2420 c3        1 31O      0.124700
      2 OAU         1.3980    0.0380    0.2840 os        1 31O     -0.441900
      3 CAT         2.0360   -0.2980    1.4480 c         1 31O      0.633100
      4 OAV         1.3650   -0.7620    2.3690 o         1 31O     -0.525000
      5 CAS         3.5210   -0.0480    1.3880 c3        1 31O     -0.114700
      6 CBD         4.2470   -1.3520    1.6500 c3        1 31O     -0.094100
      7 CAI         3.8940    1.0160    2.4500 c3        1 31O      0.111200
      8 NAH         3.1610    2.2560    2.3590 n2        1 31O     -0.573900
      9 CAJ         5.3820    1.2400    2.4510 cc        1 31O      0.346800
     10 NAN         6.2840    0.8620    3.4030 nd        1 31O     -0.325000
     11 NAO         7.4730    1.3300    3.0910 nd        1 31O     -0.346000
     12 CAP         7.4040    2.0410    1.9220 cc        1 31O      0.378800
     13 CAR         8.5190    2.7490    1.2540 c3        1 31O     -0.124400
     14 NAK         6.0620    2.0060    1.4760 na        1 31O     -0.257800
     15 CAE         5.5200    2.5100    0.2790 ca        1 31O     -0.014200
     16 CAF         6.2770    2.4540   -0.9100 ca        1 31O     -0.108000
     17 CAA         5.7660    2.9320   -2.1110 ca        1 31O     -0.179000
     18 CAB         4.4750    3.4700   -2.1430 ca        1 31O      0.126100
     19 OAL         3.8590    3.9700   -3.2700 os        1 31O     -0.316900
     20 CAM         4.6030    3.8900   -4.4820 c3        1 31O      0.110700
     21 CAC         3.7030    3.5330   -0.9700 ca        1 31O     -0.113000
     22 CAD         4.2140    3.0620    0.2390 ca        1 31O     -0.152900
     23 CAG         3.3340    3.1420    1.4350 ce        1 31O      0.543500
     24 CAQ         2.5560    4.4070    1.5240 ca        1 31O     -0.144900
     25 CAX         1.1770    4.3780    1.7600 ca        1 31O     -0.088000
     26 CAY         0.4580    5.5680    1.8550 ca        1 31O     -0.131000
     27 CAZ         1.1240    6.7900    1.7250 ca        1 31O      0.029400
     28 CL1         0.2510    8.2430    1.8410 cl        1 31O     -0.088400
     29 CBA         2.5050    6.8270    1.5020 ca        1 31O     -0.131000
     30 CBB         3.2170    5.6350    1.4020 ca        1 31O     -0.088000
     31 H1         -0.5150    0.4310    1.0320 h1        1 31O      0.051367
     32 H2         -0.3020    0.1620   -0.7830 h1        1 31O      0.051367
     33 H3         -0.2380   -1.2600    0.3940 h1        1 31O      0.051367
     34 H4          3.7870    0.3380    0.3640 hc        1 31O      0.085700
     35 H5          3.9670   -2.1050    0.8740 hc        1 31O      0.057033
     36 H6          5.3510   -1.1920    1.6120 hc        1 31O      0.057033
     37 H7          3.9760   -1.7560    2.6560 hc        1 31O      0.057033
     38 H8          3.6040    0.5920    3.4670 h1        1 31O      0.131700
     39 H9          8.1450    3.6150    0.6540 hc        1 31O      0.064033
     40 H10         9.0630    2.0430    0.5770 hc        1 31O      0.064033
     41 H11         9.2390    3.1270    2.0230 hc        1 31O      0.064033
     42 H12         7.2890    2.0150   -0.9010 ha        1 31O      0.151000
     43 H13         6.3800    2.8740   -3.0210 ha        1 31O      0.149000
     44 H14         5.5410    4.4920   -4.4080 h1        1 31O      0.049700
     45 H15         3.9070    4.3320   -5.2400 h1        1 31O      0.049700
     46 H16         4.8360    2.8270   -4.7320 h1        1 31O      0.049700
     47 H17         2.6870    3.9590   -1.0180 ha        1 31O      0.171000
     48 H18         0.6560    3.4150    1.8790 ha        1 31O      0.149000
     49 H19        -0.6270    5.5420    2.0390 ha        1 31O      0.151500
     50 H20         3.0280    7.7910    1.4100 ha        1 31O      0.151500
     51 H21         4.3040    5.6600    1.2300 ha        1 31O      0.149000
@<TRIPOS>BOND
     1    1    2 1   
     2    1   31 1   
     3    1   32 1   
     4    1   33 1   
     5    2    3 1   
     6    3    4 2   
     7    3    5 1   
     8    5    6 1   
     9    5    7 1   
    10    5   34 1   
    11    6   35 1   
    12    6   36 1   
    13    6   37 1   
    14    7    8 1   
    15    7    9 1   
    16    7   38 1   
    17    8   23 2   
    18    9   10 2   
    19    9   14 1   
    20   10   11 1   
    21   11   12 2   
    22   12   13 1   
    23   12   14 1   
    24   13   39 1   
    25   13   40 1   
    26   13   41 1   
    27   14   15 1   
    28   15   16 ar  
    29   15   22 ar  
    30   16   17 ar  
    31   16   42 1   
    32   17   18 ar  
    33   17   43 1   
    34   18   19 1   
    35   18   21 ar  
    36   19   20 1   
    37   20   44 1   
    38   20   45 1   
    39   20   46 1   
    40   21   22 ar  
    41   21   47 1   
    42   22   23 1   
    43   23   24 1   
    44   24   25 ar  
    45   24   30 ar  
    46   25   26 ar  
    47   25   48 1   
    48   26   27 ar  
    49   26   49 1   
    50   27   28 1   
    51   27   29 ar  
    52   29   30 ar  
    53   29   50 1   
    54   30   51 1   
@<TRIPOS>SUBSTRUCTURE
     1 31O         1 TEMP              0 ****  ****    0 ROOT
