@<TRIPOS>MOLECULE
molecule
   54    57     1     0     0
SMALL
bcc


@<TRIPOS>ATOM
      1 CAW          0.0000     0.0000     0.0000 c3         1 31P       0.138700
      2 OAU          1.4510     0.0000     0.0000 os         1 31P      -0.429900
      3 CAT          2.0610     0.0000     1.1960 c          1 31P       0.640100
      4 OAV          1.4060     0.0950     2.2070 o          1 31P      -0.536000
      5 CAS          3.5610    -0.1180     1.2780 c3         1 31P      -0.138700
      6 CBD          3.9320    -1.4010     2.0240 c3         1 31P      -0.073400
      7 CBE          3.4740    -2.6130     1.2110 c3         1 31P      -0.099100
      8 CAI          4.1270     1.0890     2.0280 c3         1 31P       0.128200
      9 NAH          3.7620     2.3260     1.3270 n2         1 31P      -0.575900
     10 CAJ          5.6320     1.0090     2.0630 cc         1 31P       0.344800
     11 NAN          6.3980     0.9430     3.1140 nc         1 31P      -0.330000
     12 NAO          7.6330     0.9290     2.7500 nc         1 31P      -0.346000
     13 CAP          7.7130     0.9740     1.4460 cd         1 31P       0.367800
     14 CAR          8.9770     0.9950     0.6240 c3         1 31P      -0.106400
     15 NAK          6.4390     1.0000     0.9720 na         1 31P      -0.239800
     16 CAE          6.0200     0.9800    -0.3600 ca         1 31P      -0.022200
     17 CAF          6.7650     0.2420    -1.2740 ca         1 31P      -0.106000
     18 CAA          6.3750     0.1630    -2.5950 ca         1 31P      -0.193000
     19 CAB          5.2270     0.8200    -3.0190 ca         1 31P       0.140100
     20 OAL          4.8330     0.7290    -4.3160 os         1 31P      -0.319900
     21 CAM          5.6460    -0.0600    -5.1870 c3         1 31P       0.126700
     22 CAC          4.4860     1.5660    -2.1240 ca         1 31P      -0.120000
     23 CAD          4.8820     1.6700    -0.7830 ca         1 31P      -0.146900
     24 CAG          4.0980     2.5380     0.1020 ce         1 31P       0.533500
     25 CAQ          3.6370     3.8170    -0.4860 ca         1 31P      -0.146900
     26 CAX          2.4910     4.4420     0.0090 ca         1 31P      -0.084000
     27 CAY          2.0660     5.6330    -0.5410 ca         1 31P      -0.131500
     28 CAZ          2.7740     6.2090    -1.5830 ca         1 31P       0.043400
     29 Cl1          2.2330     7.7080    -2.2710 cl         1 31P      -0.104400
     30 CBA          3.9120     5.5930    -2.0780 ca         1 31P      -0.131500
     31 CBB          4.3490     4.4050    -1.5310 ca         1 31P      -0.084000
     32 H1          -0.3610    -0.8940     0.4950 h1         1 31P       0.049700
     33 H2          -0.3610     0.0180    -1.0210 h1         1 31P       0.049700
     34 H3          -0.3610     0.8750     0.5260 h1         1 31P       0.049700
     35 H4           3.9760    -0.1490     0.2780 hc         1 31P       0.079700
     36 H5           3.4440    -1.4110     2.9910 hc         1 31P       0.066200
     37 H6           5.0050    -1.4420     2.1610 hc         1 31P       0.066200
     38 H7           3.5270    -2.3800     0.1540 hc         1 31P       0.039367
     39 H8           2.4540    -2.8620     1.4760 hc         1 31P       0.039367
     40 H9           4.1190    -3.4570     1.4260 hc         1 31P       0.039367
     41 H10          3.7390     1.1150     3.0390 h1         1 31P       0.134700
     42 H11          8.8580     1.6830    -0.2040 hc         1 31P       0.060033
     43 H12          9.8050     1.3150     1.2430 hc         1 31P       0.060033
     44 H13          9.1740     0.0010     0.2410 hc         1 31P       0.060033
     45 H14          7.6600    -0.2720    -0.9470 ha         1 31P       0.151000
     46 H15          6.9280    -0.4610    -3.2860 ha         1 31P       0.148000
     47 H16          6.6500     0.3460    -5.2090 h1         1 31P       0.046033
     48 H17          5.2280    -0.0430    -6.1860 h1         1 31P       0.046033
     49 H18          5.6770    -1.0810    -4.8260 h1         1 31P       0.046033
     50 H19          3.5920     2.0770    -2.4610 ha         1 31P       0.169000
     51 H20          1.9370     3.9920     0.8240 ha         1 31P       0.153000
     52 H21          1.1770     6.1190    -0.1590 ha         1 31P       0.148000
     53 H22          4.4640     6.0490    -2.8910 ha         1 31P       0.148000
     54 H23          5.2400     3.9240    -1.9180 ha         1 31P       0.153000
@<TRIPOS>BOND
     1     7     6 1
     2    14    13 1
     3    12    13 2
     4    12    11 1
     5    13    15 1
     6    17    18 ar
     7    17    16 ar
     8     6     5 1
     9    11    10 2
    10    18    19 ar
    11    15    10 1
    12    15    16 1
    13    10     8 1
    14    16    23 ar
    15    21    20 1
    16     5     8 1
    17     5     3 1
    18     8     9 1
    19    19    20 1
    20    19    22 ar
    21    23    22 ar
    22    23    24 1
    23     3     2 1
    24     3     4 2
    25     2     1 1
    26     9    24 2
    27    24    25 1
    28    25    26 ar
    29    25    31 ar
    30    26    27 ar
    31    31    30 ar
    32    27    28 ar
    33    30    28 ar
    34    28    29 1
    35     1    32 1
    36     1    33 1
    37     1    34 1
    38     5    35 1
    39     6    36 1
    40     6    37 1
    41     7    38 1
    42     7    39 1
    43     7    40 1
    44     8    41 1
    45    14    42 1
    46    14    43 1
    47    14    44 1
    48    17    45 1
    49    18    46 1
    50    21    47 1
    51    21    48 1
    52    21    49 1
    53    22    50 1
    54    26    51 1
    55    27    52 1
    56    30    53 1
    57    31    54 1
@<TRIPOS>SUBSTRUCTURE
     1 31P         1 TEMP              0 ****  ****    0 ROOT
