@<TRIPOS>MOLECULE
31P
   54    57     1     0     0
SMALL
bcc


@<TRIPOS>ATOM
      1 CAW          0.0000     0.0000     0.0000 c3         1 31P       0.267700
      2 OAU          1.4510     0.0000     0.0000 os         1 31P      -0.417900
      3 CAT          2.0610     0.0000     1.1960 c          1 31P       0.699100
      4 OAV          1.4060     0.0950     2.2070 o          1 31P      -0.567000
      5 CAS          3.5610    -0.1180     1.2780 c3         1 31P      -0.138700
      6 CBD          3.9320    -1.4010     2.0240 c3         1 31P      -0.019400
      7 CBE          3.4740    -2.6130     1.2110 c3         1 31P      -0.005100
      8 CAI          4.1270     1.0890     2.0280 c3         1 31P       0.147200
      9 NAH          3.7620     2.3260     1.3270 n2         1 31P      -0.500900
     10 CAJ          5.6320     1.0090     2.0630 cc         1 31P       0.130800
     11 NAN          6.3980     0.9430     3.1140 nd         1 31P      -0.295000
     12 NAO          7.6330     0.9290     2.7500 nd         1 31P      -0.322000
     13 CAP          7.7130     0.9740     1.4460 cc         1 31P       0.159800
     14 CAR          8.9770     0.9950     0.6240 c3         1 31P       0.009600
     15 NAK          6.4390     1.0000     0.9720 na         1 31P       0.292200
     16 CAE          6.0200     0.9800    -0.3600 ca         1 31P      -0.206200
     17 CAF          6.7650     0.2420    -1.2740 ca         1 31P      -0.068000
     18 CAA          6.3750     0.1630    -2.5950 ca         1 31P      -0.184000
     19 CAB          5.2270     0.8200    -3.0190 ca         1 31P       0.163100
     20 OAL          4.8330     0.7290    -4.3160 os         1 31P      -0.298900
     21 CAM          5.6460    -0.0600    -5.1870 c3         1 31P       0.243700
     22 CAC          4.4860     1.5660    -2.1240 ca         1 31P      -0.111000
     23 CAD          4.8820     1.6700    -0.7830 ca         1 31P      -0.107900
     24 CAG          4.0980     2.5380     0.1020 ce         1 31P       0.491500
     25 CAQ          3.6370     3.8170    -0.4860 ca         1 31P      -0.157900
     26 CAX          2.4910     4.4420     0.0090 ca         1 31P      -0.061500
     27 CAY          2.0660     5.6330    -0.5410 ca         1 31P      -0.107000
     28 CAZ          2.7740     6.2090    -1.5830 ca         1 31P      -0.020600
     29 Cl1          2.2330     7.7080    -2.2710 cl         1 31P      -0.023400
     30 CBA          3.9120     5.5930    -2.0780 ca         1 31P      -0.107000
     31 CBB          4.3490     4.4050    -1.5310 ca         1 31P      -0.061500
     32 H1          -0.3610    -0.8940     0.4950 h1         1 31P       0.002367
     33 H2          -0.3610     0.0180    -1.0210 h1         1 31P       0.002367
     34 H3          -0.3610     0.8750     0.5260 h1         1 31P       0.002367
     35 H4           3.9760    -0.1490     0.2780 hc         1 31P       0.055700
     36 H5           3.4440    -1.4110     2.9910 hc         1 31P       0.035700
     37 H6           5.0050    -1.4420     2.1610 hc         1 31P       0.035700
     38 H7           3.5270    -2.3800     0.1540 hc         1 31P       0.006367
     39 H8           2.4540    -2.8620     1.4760 hc         1 31P       0.006367
     40 H9           4.1190    -3.4570     1.4260 hc         1 31P       0.006367
     41 H10          3.7390     1.1150     3.0390 h1         1 31P       0.088700
     42 H11          8.8580     1.6830    -0.2040 hc         1 31P       0.017367
     43 H12          9.8050     1.3150     1.2430 hc         1 31P       0.017367
     44 H13          9.1740     0.0010     0.2410 hc         1 31P       0.017367
     45 H14          7.6600    -0.2720    -0.9470 ha         1 31P       0.129000
     46 H15          6.9280    -0.4610    -3.2860 ha         1 31P       0.130000
     47 H16          6.6500     0.3460    -5.2090 h1         1 31P       0.001700
     48 H17          5.2280    -0.0430    -6.1860 h1         1 31P       0.001700
     49 H18          5.6770    -1.0810    -4.8260 h1         1 31P       0.001700
     50 H19          3.5920     2.0770    -2.4610 ha         1 31P       0.142000
     51 H20          1.9370     3.9920     0.8240 ha         1 31P       0.122000
     52 H21          1.1770     6.1190    -0.1590 ha         1 31P       0.117500
     53 H22          4.4640     6.0490    -2.8910 ha         1 31P       0.117500
     54 H23          5.2400     3.9240    -1.9180 ha         1 31P       0.122000
@<TRIPOS>BOND
     1     1     2 1   
     2     1    32 1   
     3     1    33 1   
     4     1    34 1   
     5     2     3 1   
     6     3     4 2   
     7     3     5 1   
     8     5     6 1   
     9     5     8 1   
    10     5    35 1   
    11     6     7 1   
    12     6    36 1   
    13     6    37 1   
    14     7    38 1   
    15     7    39 1   
    16     7    40 1   
    17     8     9 1   
    18     8    10 1   
    19     8    41 1   
    20     9    24 2   
    21    10    11 2   
    22    10    15 1   
    23    11    12 1   
    24    12    13 2   
    25    13    14 1   
    26    13    15 1   
    27    14    42 1   
    28    14    43 1   
    29    14    44 1   
    30    15    16 1   
    31    16    17 ar  
    32    16    23 ar  
    33    17    18 ar  
    34    17    45 1   
    35    18    19 ar  
    36    18    46 1   
    37    19    20 1   
    38    19    22 ar  
    39    20    21 1   
    40    21    47 1   
    41    21    48 1   
    42    21    49 1   
    43    22    23 ar  
    44    22    50 1   
    45    23    24 1   
    46    24    25 1   
    47    25    26 ar  
    48    25    31 ar  
    49    26    27 ar  
    50    26    51 1   
    51    27    28 ar  
    52    27    52 1   
    53    28    29 1   
    54    28    30 ar  
    55    30    31 ar  
    56    30    53 1   
    57    31    54 1   
@<TRIPOS>SUBSTRUCTURE
     1 31P         1 TEMP              0 ****  ****    0 ROOT
