@<TRIPOS>MOLECULE
molecule
   36    38     1     0     0
SMALL
bcc


@<TRIPOS>ATOM
      1 O11          0.0000     0.0000     0.0000 o          1 31R      -0.610500
      2 C6           1.2180     0.0000     0.0000 c          1 31R       0.746800
      3 O1           1.8710     0.0000     1.1730 os         1 31R      -0.313200
      4 C2           3.2200    -0.0000     1.2390 ca         1 31R       0.165100
      5 C7           3.8670    -0.0010     2.4660 ca         1 31R      -0.220000
      6 C8           5.2530    -0.0010     2.5130 ca         1 31R       0.169100
      7 O12          5.8850    -0.0030     3.7150 oh         1 31R      -0.488100
      8 C5           1.9020    -0.0060    -1.2270 cc         1 31R      -0.301200
      9 C4           3.2840    -0.0060    -1.2380 cd         1 31R       0.102600
     10 C13          4.0370    -0.0120    -2.5120 ca         1 31R      -0.069800
     11 C14          4.8290    -1.1100    -2.8530 ca         1 31R      -0.103500
     12 C15          5.5240    -1.1110    -4.0440 ca         1 31R      -0.129500
     13 C16          5.4390    -0.0270    -4.9000 ca         1 31R      -0.120000
     14 C17          4.6560     1.0650    -4.5680 ca         1 31R      -0.129500
     15 C18          3.9560     1.0780    -3.3790 ca         1 31R      -0.103500
     16 C3           3.9810    -0.0010     0.0580 ca         1 31R      -0.175800
     17 C10          5.3770    -0.0010     0.1230 ca         1 31R      -0.061000
     18 C9           6.0000    -0.0020     1.3390 ca         1 31R      -0.096300
     19 C19          7.5050    -0.0030     1.4090 c3         1 31R      -0.019100
     20 C20          8.0030     1.4170     1.6840 c3         1 31R      -0.178400
     21 C21          9.5080     1.4180     1.7540 c          1 31R       0.892600
     22 O23         10.1690     2.5630     1.9880 o          1 31R      -0.853300
     23 O22         10.1200     0.3870     1.6000 o          1 31R      -0.853300
     24 H1           3.2940     0.0860     3.3810 ha         1 31R       0.149000
     25 H2           5.6230    -0.7630     4.2070 ho         1 31R       0.417000
     26 H3           1.3530    -0.1370    -2.1520 ha         1 31R       0.164000
     27 H4           4.8960    -1.9600    -2.1850 ha         1 31R       0.139500
     28 H5           6.1390    -1.9620    -4.3100 ha         1 31R       0.131000
     29 H6           5.9880    -0.0330    -5.8340 ha         1 31R       0.127000
     30 H7           4.5940     1.9110    -5.2420 ha         1 31R       0.131000
     31 H8           3.3430     1.9330    -3.1200 ha         1 31R       0.139500
     32 H9           5.9630    -0.0020    -0.7880 ha         1 31R       0.156000
     33 H10          7.9100    -0.3510     0.4660 hc         1 31R       0.059200
     34 H11          7.8290    -0.6600     2.2060 hc         1 31R       0.059200
     35 H12          7.5980     1.7660     2.6260 hc         1 31R       0.037700
     36 H13          7.6790     2.0750     0.8860 hc         1 31R       0.037700
@<TRIPOS>BOND
     1    12    13 ar  
     2    12    11 ar  
     3    13    14 ar  
     4    11    10 ar  
     5    14    15 ar  
     6    10    15 ar  
     7    10     9 1   
     8    23    21 1   
     9     8     9 2   
    10     8     2 1   
    11    22    21 1   
    12     9    16 1   
    13     1     2 2   
    14    21    20 1   
    15     2     3 1   
    16    16    17 ar  
    17    16     4 ar  
    18    17    18 ar  
    19     3     4 1   
    20     4     5 ar  
    21    20    19 1   
    22    18    19 1   
    23    18     6 ar  
    24     5     6 ar  
    25     6     7 1   
    26     5    24 1   
    27     7    25 1   
    28     8    26 1   
    29    11    27 1   
    30    12    28 1   
    31    13    29 1   
    32    14    30 1   
    33    15    31 1   
    34    17    32 1   
    35    19    33 1   
    36    19    34 1   
    37    20    35 1   
    38    20    36 1   
@<TRIPOS>SUBSTRUCTURE
     1 31R         1 TEMP              0 ****  ****    0 ROOT
