@<TRIPOS>MOLECULE
31R
   36    38     1     0     0
SMALL
bcc


@<TRIPOS>ATOM
      1 O11         0.1320   -0.9300   -0.1780 o         1 31R     -0.616500
      2 C6          1.3340   -0.6460   -0.1930 c         1 31R      0.729800
      3 O1          1.8440   -0.5840    1.1000 os        1 31R     -0.334200
      4 C2          3.1820   -0.2810    1.2620 ca        1 31R      0.165100
      5 C7          3.6190   -0.2440    2.5940 ca        1 31R     -0.264000
      6 C8          4.9620    0.0440    2.8430 ca        1 31R      0.155100
      7 O12         5.4540    0.0970    4.1270 oh        1 31R     -0.490100
      8 C5          2.2010   -0.3850   -1.3190 cc        1 31R     -0.313200
      9 C4          3.5200   -0.0780   -1.1580 cd        1 31R      0.152600
     10 C13         4.3320    0.2090   -2.3410 ca        1 31R     -0.103800
     11 C14         5.5960   -0.3610   -2.5350 ca        1 31R     -0.089500
     12 C15         6.3340   -0.0530   -3.6810 ca        1 31R     -0.132500
     13 C16         5.8100    0.8000   -4.6480 ca        1 31R     -0.129000
     14 C17         4.5420    1.3580   -4.4690 ca        1 31R     -0.132500
     15 C18         3.8080    1.0670   -3.3250 ca        1 31R     -0.089500
     16 C3          4.0590   -0.0230    0.1860 ca        1 31R     -0.175800
     17 C10         5.4040    0.2730    0.4850 ca        1 31R     -0.037000
     18 C9          5.8780    0.3010    1.7920 ca        1 31R     -0.098300
     19 C19         7.3050    0.5480    2.1350 c3        1 31R     -0.011100
     20 C20         8.1840    1.0330    1.0050 c3        1 31R     -0.200400
     21 C21         8.6240   -0.1170    0.0830 c         1 31R      0.909600
     22 O23         9.5530   -0.8770    0.4700 o         1 31R     -0.852800
     23 O22         8.0340   -0.2430   -1.0350 o         1 31R     -0.852800
     24 H1          2.9100   -0.4480    3.4070 ha        1 31R      0.144000
     25 H2          4.7340   -0.1360    4.7310 ho        1 31R      0.410000
     26 H3          1.7330   -0.4530   -2.3110 ha        1 31R      0.160000
     27 H4          6.0530   -1.0260   -1.7780 ha        1 31R      0.158500
     28 H5          7.3510   -0.4680   -3.7750 ha        1 31R      0.139500
     29 H6          6.3960    1.0450   -5.5450 ha        1 31R      0.120000
     30 H7          4.1260    2.0340   -5.2290 ha        1 31R      0.139500
     31 H8          2.8150    1.5180   -3.1780 ha        1 31R      0.158500
     32 H9          6.1290    0.4620   -0.3400 ha        1 31R      0.222000
     33 H10         7.7370   -0.4140    2.5340 hc        1 31R      0.049200
     34 H11         7.3310    1.2930    2.9780 hc        1 31R      0.049200
     35 H12         7.6630    1.8210    0.4060 hc        1 31R      0.029700
     36 H13         9.1070    1.4880    1.4480 hc        1 31R      0.029700
@<TRIPOS>BOND
     1    1    2 2   
     2    2    3 1   
     3    2    8 1   
     4    3    4 1   
     5    4    5 ar  
     6    4   16 ar  
     7    5    6 ar  
     8    5   24 1   
     9    6    7 1   
    10    6   18 ar  
    11    7   25 1   
    12    8    9 2   
    13    8   26 1   
    14    9   10 1   
    15    9   16 1   
    16   10   11 ar  
    17   10   15 ar  
    18   11   12 ar  
    19   11   27 1   
    20   12   13 ar  
    21   12   28 1   
    22   13   14 ar  
    23   13   29 1   
    24   14   15 ar  
    25   14   30 1   
    26   15   31 1   
    27   16   17 ar  
    28   17   18 ar  
    29   17   32 1   
    30   18   19 1   
    31   19   20 1   
    32   19   33 1   
    33   19   34 1   
    34   20   21 1   
    35   20   35 1   
    36   20   36 1   
    37   21   22 1   
    38   21   23 1   
@<TRIPOS>SUBSTRUCTURE
     1 31R         1 TEMP              0 ****  ****    0 ROOT
