@<TRIPOS>MOLECULE
31S
   44    46     1     0     0
SMALL
bcc


@<TRIPOS>ATOM
      1 C1         -0.0540    0.4290   -0.7050 ca        1 31S     -0.122500
      2 C2          1.2060   -0.1280   -0.4320 ca        1 31S     -0.055300
      3 C3          1.4430   -0.7200    0.8110 ca        1 31S     -0.122500
      4 C4          0.4400   -0.7600    1.7810 ca        1 31S     -0.136500
      5 C5         -0.8060   -0.2010    1.4980 ca        1 31S      0.002400
      6 C6         -1.0600    0.3950    0.2570 ca        1 31S     -0.136500
      7 CL7        -2.0380   -0.2470    2.6820 cl        1 31S     -0.142400
      8 C8          2.2540   -0.0820   -1.4870 c3        1 31S     -0.052100
      9 C9          2.8830    1.3020   -1.5840 c3        1 31S     -0.013200
     10 C10         3.5820    1.5020   -2.8890 ce        1 31S     -0.142400
     11 C11         2.8990    1.8210   -4.0040 cf        1 31S     -0.141200
     12 C12         1.4090    2.0730   -4.0830 c         1 31S      0.896800
     13 O13         0.6040    1.1590   -3.7390 o         1 31S     -0.831800
     14 O14         1.0480    3.2010   -4.5230 o         1 31S     -0.831800
     15 C15         5.0360    1.3600   -2.9000 ca        1 31S      0.010200
     16 C16         5.6840    0.4240   -2.0780 ca        1 31S     -0.142000
     17 C17         7.0690    0.2940   -2.0950 ca        1 31S     -0.116000
     18 C18         7.8510    1.0970   -2.9380 cp        1 31S     -0.083000
     19 C19         7.2100    2.0340   -3.7590 ca        1 31S     -0.116000
     20 C20         5.8260    2.1660   -3.7380 ca        1 31S     -0.142000
     21 C21         9.3040    0.9590   -2.9590 cp        1 31S     -0.006000
     22 C22        10.0120    1.0520   -4.1670 ca        1 31S     -0.126500
     23 C23        11.3990    0.9190   -4.1850 ca        1 31S     -0.134000
     24 C24        12.0990    0.6930   -3.0000 ca        1 31S     -0.145000
     25 C25        11.4040    0.6000   -1.7940 ca        1 31S     -0.134000
     26 C26        10.0170    0.7310   -1.7720 ca        1 31S     -0.126500
     27 H1         -0.2270    0.8880   -1.7020 ha        1 31S      0.167500
     28 H3          2.4260   -1.1600    1.0310 ha        1 31S      0.167500
     29 H4          0.6340   -1.2270    2.7560 ha        1 31S      0.133500
     30 H6         -2.0440    0.8330    0.0390 ha        1 31S      0.133500
     31 H11         3.4190    1.9590   -4.9660 ha        1 31S      0.106000
     32 H16         5.0850   -0.2190   -1.4160 ha        1 31S      0.140000
     33 H17         7.5540   -0.4530   -1.4500 ha        1 31S      0.120500
     34 H19         7.8080    2.6810   -4.4180 ha        1 31S      0.120500
     35 H20         5.3380    2.9170   -4.3790 ha        1 31S      0.140000
     36 H22         9.4630    1.2230   -5.1050 ha        1 31S      0.135500
     37 H23        11.9420    0.9920   -5.1380 ha        1 31S      0.122500
     38 H24        13.1920    0.5890   -3.0160 ha        1 31S      0.121000
     39 H25        11.9510    0.4240   -0.8570 ha        1 31S      0.122500
     40 H26         9.4730    0.6640   -0.8170 ha        1 31S      0.135500
     41 H8          1.7720   -0.3100   -2.4830 hc        1 31S      0.068200
     42 H8A         3.0420   -0.8530   -1.2870 hc        1 31S      0.068200
     43 H9          3.5900    1.4620   -0.7290 hc        1 31S      0.044700
     44 H9A         2.0640    2.0690   -1.5040 hc        1 31S      0.044700
@<TRIPOS>BOND
     1    1    2 ar  
     2    1    6 ar  
     3    1   27 1   
     4    2    3 ar  
     5    2    8 1   
     6    3    4 ar  
     7    3   28 1   
     8    4    5 ar  
     9    4   29 1   
    10    5    6 ar  
    11    5    7 1   
    12    6   30 1   
    13    8    9 1   
    14    8   41 1   
    15    8   42 1   
    16    9   10 1   
    17    9   43 1   
    18    9   44 1   
    19   10   11 2   
    20   10   15 1   
    21   11   12 1   
    22   11   31 1   
    23   12   13 1   
    24   12   14 1   
    25   15   16 ar  
    26   15   20 ar  
    27   16   17 ar  
    28   16   32 1   
    29   17   18 ar  
    30   17   33 1   
    31   18   19 ar  
    32   18   21 1   
    33   19   20 ar  
    34   19   34 1   
    35   20   35 1   
    36   21   22 ar  
    37   21   26 ar  
    38   22   23 ar  
    39   22   36 1   
    40   23   24 ar  
    41   23   37 1   
    42   24   25 ar  
    43   24   38 1   
    44   25   26 ar  
    45   25   39 1   
    46   26   40 1   
@<TRIPOS>SUBSTRUCTURE
     1 31S         1 TEMP              0 ****  ****    0 ROOT
