@<TRIPOS>MOLECULE
molecule
   44    46     1     0     0
SMALL
bcc


@<TRIPOS>ATOM
      1 C1           0.0000     0.0000     0.0000 ca         1 31S      -0.119500
      2 C2           1.3820     0.0000     0.0000 ca         1 31S      -0.064300
      3 C3           2.0740     0.0000     1.1970 ca         1 31S      -0.119500
      4 C4           1.3840     0.0010     2.3950 ca         1 31S      -0.124000
      5 C5           0.0010     0.0010     2.3960 ca         1 31S       0.015400
      6 C6          -0.6910     0.0010     1.1970 ca         1 31S      -0.124000
      7 Cl7         -0.8670     0.0010     3.9000 cl         1 31S      -0.135400
      8 C8           2.1350    -0.0010    -1.3060 c3         1 31S      -0.042100
      9 C9           2.3900     1.4410    -1.7480 c3         1 31S      -0.020200
     10 C10          3.1430     1.4400    -3.0530 ce         1 31S      -0.148400
     11 C11          2.4720     1.5410    -4.2210 cf         1 31S      -0.142200
     12 C12          3.2010     1.5400    -5.4860 c          1 31S       0.859800
     13 O13          2.5300     1.6410    -6.6530 o          1 31S      -0.829300
     14 O14          4.4140     1.4480    -5.4890 o          1 31S      -0.829300
     15 C15          4.6090     1.3290    -3.0570 ca         1 31S       0.038200
     16 C16          5.2240     0.1580    -2.5990 ca         1 31S      -0.087500
     17 C17          6.5910     0.0560    -2.6020 ca         1 31S      -0.123500
     18 C18          7.3700     1.1190    -3.0620 cp         1 31S      -0.073000
     19 C19          6.7590     2.2880    -3.5180 ca         1 31S      -0.123500
     20 C20          5.3920     2.3920    -3.5230 ca         1 31S      -0.087500
     21 C21          8.8480     1.0080    -3.0640 cp         1 31S       0.005000
     22 C22          9.6300     2.0670    -3.5210 ca         1 31S      -0.131500
     23 C23         11.0050     1.9570    -3.5210 ca         1 31S      -0.131000
     24 C24         11.6090     0.7990    -3.0670 ca         1 31S      -0.154000
     25 C25         10.8380    -0.2560    -2.6130 ca         1 31S      -0.131000
     26 C26          9.4620    -0.1560    -2.6030 ca         1 31S      -0.131500
     27 H1          -0.5420     0.0000    -0.9380 ha         1 31S       0.142000
     28 H3           3.1570     0.0000     1.1960 ha         1 31S       0.142000
     29 H4           1.9260     0.0010     3.3330 ha         1 31S       0.135500
     30 H6          -1.7740     0.0010     1.1980 ha         1 31S       0.135500
     31 H11          1.3910     1.6240    -4.2190 ha         1 31S       0.109000
     32 H16          4.6190    -0.6900    -2.3010 ha         1 31S       0.125500
     33 H17          7.0680    -0.8490    -2.2450 ha         1 31S       0.113000
     34 H19          7.3660     3.1180    -3.8590 ha         1 31S       0.113000
     35 H20          4.9210     3.3190    -3.8240 ha         1 31S       0.125500
     36 H22          9.1580     2.9750    -3.8770 ha         1 31S       0.134500
     37 H23         11.6130     2.7810    -3.8760 ha         1 31S       0.116000
     38 H24         12.6890     0.7160    -3.0710 ha         1 31S       0.113000
     39 H25         11.3170    -1.1610    -2.2560 ha         1 31S       0.116000
     40 H26          8.8600    -0.9830    -2.2460 ha         1 31S       0.134500
     41 H8           3.0820    -0.5120    -1.1760 hc         1 31S       0.058700
     42 H8A          1.5490    -0.5120    -2.0600 hc         1 31S       0.058700
     43 H9           2.9760     1.9520    -0.9930 hc         1 31S       0.039200
     44 H9A          1.4440     1.9520    -1.8770 hc         1 31S       0.039200
@<TRIPOS>BOND
     1     6     1 ar  
     2    27     1 1   
     3     1     2 ar  
     4     2     3 ar  
     5     2     8 1   
     6     4     3 ar  
     7     3    28 1   
     8     5     4 ar  
     9     4    29 1   
    10     7     5 1   
    11     6     5 ar  
    12    30     6 1   
    13    42     8 1   
    14     8    41 1   
    15     8     9 1   
    16    10     9 1   
    17     9    43 1   
    18     9    44 1   
    19    11    10 2   
    20    15    10 1   
    21    12    11 1   
    22    31    11 1   
    23    14    12 1   
    24    12    13 1   
    25    16    15 ar  
    26    15    20 ar  
    27    32    16 1   
    28    16    17 ar  
    29    33    17 1   
    30    17    18 ar  
    31    21    18 1   
    32    18    19 ar  
    33    19    20 ar  
    34    19    34 1   
    35    20    35 1   
    36    26    21 ar  
    37    21    22 ar  
    38    23    22 ar  
    39    22    36 1   
    40    24    23 ar  
    41    23    37 1   
    42    25    24 ar  
    43    38    24 1   
    44    39    25 1   
    45    25    26 ar  
    46    40    26 1   
@<TRIPOS>SUBSTRUCTURE
     1 31S         1 TEMP              0 ****  ****    0 ROOT
