@<TRIPOS>MOLECULE
31T
   44    47     1     0     0
SMALL
bcc


@<TRIPOS>ATOM
      1 C8           0.0000     0.0000     0.0000 cc         1 31T      -0.250600
      2 C3           1.3660     0.0000     0.0000 cd         1 31T       0.068900
      3 O1           2.0530    -0.0010    -1.1720 oh         1 31T      -0.463100
      4 C4           2.0550     0.0000     1.2360 c          1 31T       0.545700
      5 O9           3.2750     0.0000     1.2610 o          1 31T      -0.667500
      6 N5           1.3490     0.0020     2.3850 ns         1 31T       0.130100
      7 N6          -0.0490     0.0020     2.3530 nd         1 31T      -0.551300
      8 C7          -0.6940     0.0020     1.2170 cc         1 31T       0.401600
      9 C10         -2.2010     0.0080     1.2140 c3         1 31T      -0.042700
     10 C11         -2.7130     0.0090     2.6560 c3         1 31T       0.044900
     11 C12         -4.2200     0.0150     2.6540 ca         1 31T      -0.156300
     12 C13         -4.9060     1.2090     2.4450 ca         1 31T       0.196100
     13 C14         -6.2920     1.2320     2.4410 ca         1 31T      -0.214000
     14 O18         -4.2130     2.3580     2.2440 oh         1 31T      -0.484100
     15 C17         -4.9040    -1.1500     2.8530 ca         1 31T      -0.014000
     16 C16         -6.3010    -1.1450     2.8450 ca         1 31T      -0.186800
     17 C15         -7.0010     0.0580     2.6470 ca         1 31T       0.202100
     18 O22         -8.3510     0.0590     2.6400 os         1 31T      -0.278200
     19 C21         -9.0630    -1.0640     2.8200 c          1 31T       0.789800
     20 O23        -10.2800    -1.0030     2.8040 o          1 31T      -0.625500
     21 C20         -8.4450    -2.3090     3.0240 cc         1 31T      -0.264200
     22 C19         -7.0640    -2.3860     3.0560 cd         1 31T       0.110600
     23 C24         -6.3770    -3.6790     3.2690 ca         1 31T      -0.076800
     24 C25         -6.4870    -4.6960     2.3190 ca         1 31T      -0.082000
     25 C26         -5.8440    -5.8990     2.5230 ca         1 31T      -0.100500
     26 C27         -5.0900    -6.0980     3.6670 ca         1 31T      -0.090000
     27 C28         -4.9770    -5.0940     4.6110 ca         1 31T      -0.100500
     28 C29         -5.6110    -3.8850     4.4160 ca         1 31T      -0.082000
     29 H1          -0.5440     0.0000    -0.9370 ha         1 31T       0.131000
     30 H2           2.0830    -0.8770    -1.5190 ho         1 31T       0.410000
     31 H3           1.8280     0.0020     3.2640 hn         1 31T       0.206500
     32 H4          -2.5570     0.8950     0.7040 hc         1 31T       0.034200
     33 H5          -2.5640    -0.8740     0.7020 hc         1 31T       0.034200
     34 H6          -2.3490     0.8920     3.1680 hc         1 31T       0.032200
     35 H7          -2.3560    -0.8770     3.1670 hc         1 31T       0.032200
     36 H8          -6.8200     2.1640     2.2790 ha         1 31T       0.133000
     37 H9          -4.5560     3.0340     2.8050 ho         1 31T       0.411000
     38 H10         -4.3670    -2.0610     3.0880 ha         1 31T       0.125000
     39 H11         -9.0440    -3.2000     3.1660 ha         1 31T       0.147000
     40 H12         -7.0770    -4.5410     1.4240 ha         1 31T       0.111000
     41 H13         -5.9290    -6.6890     1.7870 ha         1 31T       0.107000
     42 H14         -4.5890    -7.0460     3.8240 ha         1 31T       0.105000
     43 H15         -4.3840    -5.2550     5.5030 ha         1 31T       0.107000
     44 H16         -5.5210    -3.0990     5.1570 ha         1 31T       0.111000
@<TRIPOS>BOND
     1     1     2 2   
     2     1     8 1   
     3     1    29 1   
     4     2     3 1   
     5     2     4 1   
     6     3    30 1   
     7     4     5 2   
     8     4     6 1   
     9     6     7 1   
    10     6    31 1   
    11     7     8 2   
    12     8     9 1   
    13     9    10 1   
    14     9    32 1   
    15     9    33 1   
    16    10    11 1   
    17    10    34 1   
    18    10    35 1   
    19    11    12 ar  
    20    11    15 ar  
    21    12    13 ar  
    22    12    14 1   
    23    13    17 ar  
    24    13    36 1   
    25    14    37 1   
    26    15    16 ar  
    27    15    38 1   
    28    16    17 ar  
    29    16    22 1   
    30    17    18 1   
    31    18    19 1   
    32    19    20 2   
    33    19    21 1   
    34    21    22 2   
    35    21    39 1   
    36    22    23 1   
    37    23    24 ar  
    38    23    28 ar  
    39    24    25 ar  
    40    24    40 1   
    41    25    26 ar  
    42    25    41 1   
    43    26    27 ar  
    44    26    42 1   
    45    27    28 ar  
    46    27    43 1   
    47    28    44 1   
@<TRIPOS>SUBSTRUCTURE
     1 31T         1 TEMP              0 ****  ****    0 ROOT
