@<TRIPOS>MOLECULE
31U
   57    58     1     0     0
SMALL
bcc


@<TRIPOS>ATOM
      1 N5           0.0000     0.0000     0.0000 nz         1 31U       0.092400
      2 C4           1.4690     0.0000     0.0000 c3         1 31U      -0.165500
      3 C33          1.9790    -1.2490    -0.7210 c3         1 31U      -0.038400
      4 C17          1.5620    -1.1950    -2.1910 c3         1 31U      -0.066700
      5 C12          1.9480    -2.5050    -2.8800 c3         1 31U       0.007900
      6 C49          2.2730    -0.0280    -2.8810 c3         1 31U       0.007900
      7 C14          1.9710     0.0000     1.4210 c          1 31U       0.597100
      8 O32          1.2430    -0.3580     2.3220 o          1 31U      -0.633100
      9 N1           3.2300     0.4000     1.6910 n          1 31U      -0.078800
     10 C1           3.8460     0.4490     3.0250 c3         1 31U      -0.044300
     11 C7           3.0540     1.3670     3.9210 c          1 31U       0.574100
     12 O22          2.0700     1.9300     3.4930 o          1 31U      -0.636100
     13 C2           5.2790     0.9910     2.8480 c3         1 31U      -0.027400
     14 C3           5.2000     1.7490     1.4960 c3         1 31U      -0.022400
     15 C32          4.2200     0.8520     0.6960 c3         1 31U       0.027000
     16 N23          3.4430     1.5630     5.1970 ns         1 31U      -0.188900
     17 C24          2.6740     2.4540     6.0680 c3         1 31U       0.103300
     18 C25          3.3130     2.4990     7.4320 ca         1 31U      -0.076300
     19 C30          2.9210     1.5970     8.4050 ca         1 31U      -0.051500
     20 C29          3.5070     1.6290     9.6540 ca         1 31U      -0.071000
     21 C28          4.4870     2.5800     9.9380 ca         1 31U      -0.213900
     22 C21          5.1150     2.6230    11.2780 ce         1 31U       0.202800
     23 N46          6.0300     3.5110    11.5400 n2         1 31U      -0.465100
     24 N47          4.7310     1.7220    12.2490 nz         1 31U       0.190400
     25 C27          4.8730     3.4890     8.9540 ca         1 31U      -0.071000
     26 C26          4.2840     3.4440     7.7070 ca         1 31U      -0.051500
     27 HN5         -0.3340     0.6570     0.6770 hn         1 31U       0.232133
     28 HN5A        -0.3340    -0.9150     0.2310 hn         1 31U       0.232133
     29 H4           1.8300     0.8850    -0.5100 hx         1 31U       0.108700
     30 H33          1.5560    -2.1320    -0.2580 hc         1 31U       0.057200
     31 H33A         3.0600    -1.2880    -0.6540 hc         1 31U       0.057200
     32 H17          0.4890    -1.0540    -2.2570 hc         1 31U       0.002700
     33 H12          3.0270    -2.5800    -2.9350 hc         1 31U       0.018200
     34 H12A         1.5560    -3.3410    -2.3130 hc         1 31U       0.018200
     35 H12B         1.5330    -2.5230    -3.8810 hc         1 31U       0.018200
     36 H49          3.3310    -0.0630    -2.6500 hc         1 31U       0.018200
     37 H49A         2.1350    -0.1040    -3.9530 hc         1 31U       0.018200
     38 H49B         1.8570     0.9080    -2.5280 hc         1 31U       0.018200
     39 H1           3.8800    -0.5470     3.4490 h1         1 31U       0.057700
     40 H2           5.9900     0.1760     2.7880 hc         1 31U       0.037700
     41 H2A          5.5320     1.6710     3.6530 hc         1 31U       0.037700
     42 H3           6.1710     1.7830     1.0160 hc         1 31U       0.044200
     43 H3A          4.7910     2.7420     1.6340 hc         1 31U       0.044200
     44 H32          3.7340     1.4280    -0.0820 h1         1 31U       0.029700
     45 H32A         4.7450     0.0040     0.2750 h1         1 31U       0.029700
     46 HN23         4.2340     1.0680     5.5600 hn         1 31U       0.179500
     47 H24          2.6600     3.4510     5.6430 h1         1 31U       0.044200
     48 H24A         1.6590     2.0860     6.1560 h1         1 31U       0.044200
     49 H30          2.1590     0.8590     8.1830 ha         1 31U       0.130500
     50 H29          3.1990     0.9220    10.4160 ha         1 31U       0.104000
     51 HN46         6.3090     4.1660    10.8370 hn         1 31U       0.380400
     52 HN47         3.7510     1.8200    12.4270 hn         1 31U       0.223800
     53 HN4A         5.2430     1.9000    13.0900 hn         1 31U       0.223800
     54 H27          5.6340     4.2300     9.1680 ha         1 31U       0.104000
     55 H26          4.5840     4.1500     6.9420 ha         1 31U       0.130500
     56 H53         -0.3340     0.2420    -0.9120 hn         1 31U       0.232133
     57 H473         4.9200     0.7910    11.9340 hn         1 31U       0.223800
@<TRIPOS>BOND
     1     1     2 1   
     2     1    27 1   
     3     1    28 1   
     4     1    56 1   
     5     2     3 1   
     6     2     7 1   
     7     2    29 1   
     8     3     4 1   
     9     3    30 1   
    10     3    31 1   
    11     4     5 1   
    12     4     6 1   
    13     4    32 1   
    14     5    33 1   
    15     5    34 1   
    16     5    35 1   
    17     6    36 1   
    18     6    37 1   
    19     6    38 1   
    20     7     8 2   
    21     7     9 1   
    22     9    10 1   
    23     9    15 1   
    24    10    11 1   
    25    10    13 1   
    26    10    39 1   
    27    11    12 2   
    28    11    16 1   
    29    13    14 1   
    30    13    40 1   
    31    13    41 1   
    32    14    15 1   
    33    14    42 1   
    34    14    43 1   
    35    15    44 1   
    36    15    45 1   
    37    16    17 1   
    38    16    46 1   
    39    17    18 1   
    40    17    47 1   
    41    17    48 1   
    42    18    19 ar  
    43    18    26 ar  
    44    19    20 ar  
    45    19    49 1   
    46    20    21 ar  
    47    20    50 1   
    48    21    22 1   
    49    21    25 ar  
    50    22    23 2   
    51    22    24 1   
    52    23    51 1   
    53    24    52 1   
    54    24    53 1   
    55    24    57 1   
    56    25    26 ar  
    57    25    54 1   
    58    26    55 1   
@<TRIPOS>SUBSTRUCTURE
     1 31U         1 TEMP              0 ****  ****    0 ROOT
