@<TRIPOS>MOLECULE
molecule
   57    58     1     0     0
SMALL
bcc


@<TRIPOS>ATOM
      1 N5           0.0000     0.0000     0.0000 nz         1 31U      -0.795600
      2 C4           1.4690     0.0000     0.0000 c3         1 31U       0.029500
      3 C33          1.9790    -1.2490    -0.7210 c3         1 31U      -0.102400
      4 C17          1.5620    -1.1950    -2.1910 c3         1 31U      -0.091700
      5 C12          1.9480    -2.5050    -2.8800 c3         1 31U      -0.091600
      6 C49          2.2730    -0.0280    -2.8810 c3         1 31U      -0.091600
      7 C14          1.9710     0.0000     1.4210 c          1 31U       0.671100
      8 O32          1.2430    -0.3580     2.3220 o          1 31U      -0.587100
      9 N1           3.2300     0.4000     1.6910 n          1 31U      -0.452800
     10 C1           3.8460     0.4490     3.0250 c3         1 31U       0.041700
     11 C7           3.0540     1.3670     3.9210 c          1 31U       0.659100
     12 O22          2.0700     1.9300     3.4930 o          1 31U      -0.592100
     13 C2           5.2790     0.9910     2.8480 c3         1 31U      -0.091400
     14 C3           5.2000     1.7490     1.4960 c3         1 31U      -0.087400
     15 C32          4.2200     0.8520     0.6960 c3         1 31U       0.080000
     16 N23          3.4430     1.5630     5.1970 ns         1 31U      -0.584900
     17 C24          2.6740     2.4540     6.0680 c3         1 31U       0.153300
     18 C25          3.3130     2.4990     7.4320 ca         1 31U      -0.067300
     19 C30          2.9210     1.5970     8.4050 ca         1 31U      -0.100000
     20 C29          3.5070     1.6290     9.6540 ca         1 31U      -0.084500
     21 C28          4.4870     2.5800     9.9380 ca         1 31U      -0.182900
     22 C21          5.1150     2.6230    11.2780 ce         1 31U       0.537800
     23 N46          6.0300     3.5110    11.5400 n2         1 31U      -0.670100
     24 N47          4.7310     1.7220    12.2490 nz         1 31U      -0.802600
     25 C27          4.8730     3.4890     8.9540 ca         1 31U      -0.084500
     26 C26          4.2840     3.4440     7.7070 ca         1 31U      -0.100000
     27 HN5         -0.3340     0.6520     0.6820 hn         1 31U       0.464800
     28 HN5A        -0.3340     0.2640    -0.9060 hn         1 31U       0.464800
     29 H4           1.8300     0.8850    -0.5100 hx         1 31U       0.128700
     30 H33          1.5560    -2.1320    -0.2580 hc         1 31U       0.089700
     31 H33A         3.0600    -1.2880    -0.6540 hc         1 31U       0.089700
     32 H17          0.4890    -1.0540    -2.2570 hc         1 31U       0.025700
     33 H12          3.0170    -2.6550    -2.7990 hc         1 31U       0.052200
     34 H12A         1.4310    -3.3300    -2.4040 hc         1 31U       0.052200
     35 H12B         1.6680    -2.4600    -3.9260 hc         1 31U       0.052200
     36 H49          2.1400    -0.1070    -3.9530 hc         1 31U       0.052200
     37 H49A         1.8530     0.9080    -2.5330 hc         1 31U       0.052200
     38 H49B         3.3300    -0.0600    -2.6450 hc         1 31U       0.052200
     39 H1           3.8800    -0.5470     3.4490 h1         1 31U       0.089700
     40 H2           5.9900     0.1760     2.7880 hc         1 31U       0.073200
     41 H2A          5.5320     1.6710     3.6530 hc         1 31U       0.073200
     42 H3           6.1710     1.7830     1.0160 hc         1 31U       0.079700
     43 H3A          4.7910     2.7420     1.6340 hc         1 31U       0.079700
     44 H32          3.7340     1.4280    -0.0820 h1         1 31U       0.057700
     45 H32A         4.7450     0.0040     0.2750 h1         1 31U       0.057700
     46 HN23         4.2290     1.0630     5.5620 hn         1 31U       0.320500
     47 H24          1.6590     2.0860     6.1560 h1         1 31U       0.076200
     48 H24A         2.6600     3.4510     5.6430 h1         1 31U       0.076200
     49 H30          2.1590     0.8590     8.1830 ha         1 31U       0.164500
     50 H29          3.1990     0.9220    10.4160 ha         1 31U       0.145000
     51 HN46         6.4550     3.5410    12.4460 hn         1 31U       0.441400
     52 HN47         3.7510     1.8200    12.4270 hn         1 31U       0.467800
     53 HN4A         4.9210     0.7910    11.9340 hn         1 31U       0.467800
     54 H27          5.6340     4.2300     9.1680 ha         1 31U       0.145000
     55 H26          4.5840     4.1500     6.9420 ha         1 31U       0.164500
     56 H53         -0.3340    -0.9130     0.2400 hn         1 31U       0.464800
     57 H473         5.2420     1.9010    13.0910 hn         1 31U       0.467800
@<TRIPOS>BOND
     1    10     9 1   
     2    15     9 1   
     3     9     7 1   
     4    13    10 1   
     5    11    10 1   
     6    10    39 1   
     7    12    11 2   
     8    11    16 1   
     9    17    16 1   
    10    16    46 1   
    11    17    18 1   
    12    17    47 1   
    13    17    48 1   
    14    18    26 ar  
    15    18    19 ar  
    16    26    25 ar  
    17    26    55 1   
    18    25    21 ar  
    19    25    54 1   
    20    20    21 ar  
    21    21    22 1   
    22    22    23 2   
    23    22    24 1   
    24    23    51 1   
    25    24    52 1   
    26    24    53 1   
    27    19    20 ar  
    28    20    50 1   
    29    19    49 1   
    30    13    14 1   
    31    13    40 1   
    32    13    41 1   
    33    14    15 1   
    34    14    42 1   
    35    14    43 1   
    36    15    44 1   
    37    15    45 1   
    38     7     8 2   
    39     7     2 1   
    40     2     1 1   
    41     2     3 1   
    42     2    29 1   
    43     1    27 1   
    44     1    28 1   
    45     3     4 1   
    46     3    30 1   
    47     3    31 1   
    48     5     4 1   
    49     4     6 1   
    50     4    32 1   
    51     6    36 1   
    52     6    37 1   
    53     6    38 1   
    54     5    33 1   
    55     5    34 1   
    56     5    35 1   
    57    56     1 1   
    58    57    24 1   
@<TRIPOS>SUBSTRUCTURE
     1 31U         1 TEMP              0 ****  ****    0 ROOT
