@<TRIPOS>MOLECULE
molecule
   63    68     1     0     0
SMALL
bcc


@<TRIPOS>ATOM
      1 C2           0.0000     0.0000     0.0000 ca         1 31V      -0.096000
      2 C3           1.3800     0.0000     0.0000 ca         1 31V      -0.141000
      3 N4          10.9640     2.7920     0.3790 na         1 31V       0.135300
      4 C5           1.3800     0.0020     2.4130 ca         1 31V      -0.185000
      5 N6          -2.1000     0.0060     1.1970 na         1 31V      -0.107000
      6 C7           4.3850     0.0010     0.3730 cc         1 31V      -0.276600
      7 C9           7.7080     1.1790     0.8040 c          1 31V       0.644100
      8 C10          9.7040     2.4660     0.7760 cc         1 31V       0.066300
      9 C11         10.3630     4.2980     1.8630 cd         1 31V       0.400600
     10 C12          9.3150     3.3890     1.6970 cd         1 31V      -0.331300
     11 C13         10.3620     5.4850     2.7910 cx         1 31V      -0.165000
     12 C15         10.7610     5.2440     4.2480 cx         1 31V      -0.125400
     13 C18         12.1530     0.9120    -2.5150 ca         1 31V      -0.105500
     14 C20         13.0350     3.1390    -2.6160 ca         1 31V      -0.105500
     15 C21         12.3830     3.4530    -1.4390 ca         1 31V      -0.149000
     16 C22         -2.9110    -0.8320     1.8910 cc         1 31V       0.424400
     17 O            7.2470     1.9350     1.6330 o          1 31V      -0.535100
     18 N3           8.9490     1.3840     0.3220 ns         1 31V      -0.455100
     19 C14          9.2990     5.5190     3.8920 cx         1 31V      -0.125400
     20 N5          11.3480     3.9420     1.0770 nc         1 31V      -0.513800
     21 C16         11.6170     2.4910    -0.7930 ca         1 31V       0.037800
     22 C19         12.9210     1.8700    -3.1540 ca         1 31V      -0.141000
     23 C17         11.5000     1.2200    -1.3390 ca         1 31V      -0.149000
     24 N            5.5910     0.0070     0.9860 na         1 31V       0.134400
     25 N1           5.4010     0.0100     2.2580 nc         1 31V      -0.161800
     26 N2           4.1430     0.0070     2.5260 nd         1 31V      -0.355000
     27 C6           3.4540    -0.0000     1.3710 cd         1 31V       0.343800
     28 C4           2.0770     0.0000     1.2070 ca         1 31V      -0.079500
     29 C           -0.0030    -0.0040     2.4100 ca         1 31V       0.137100
     30 O1          -0.6870    -0.0130     3.5850 os         1 31V      -0.321900
     31 C26          0.0880    -0.0180     4.7850 c3         1 31V       0.124700
     32 C1          -0.6960     0.0010     1.2000 ca         1 31V      -0.030200
     33 C24         -2.9090     0.8550     0.4870 cc         1 31V      -0.273600
     34 C23         -4.1790     0.5090     0.7700 cd         1 31V       0.318600
     35 C25         -5.4180     1.1660     0.2170 c3         1 31V      -0.105400
     36 N7          -4.1520    -0.5220     1.6270 nd         1 31V      -0.700000
     37 H1          -0.5410    -0.0000    -0.9390 ha         1 31V       0.150000
     38 H2           1.9220    -0.0010    -0.9380 ha         1 31V       0.132000
     39 H3           1.9200     0.0020     3.3520 ha         1 31V       0.172000
     40 H4           4.1970    -0.0040    -0.6940 h4         1 31V       0.184000
     41 H5           8.3610     3.4140     2.2100 ha         1 31V       0.203000
     42 H6          10.6400     6.4560     2.4000 hc         1 31V       0.096700
     43 H7          11.2860     6.0600     4.7300 hc         1 31V       0.080200
     44 H8          10.9950     4.2180     4.5050 hc         1 31V       0.080200
     45 H10         13.6340     3.8880    -3.1190 ha         1 31V       0.136000
     46 H11         12.4730     4.4470    -1.0180 ha         1 31V       0.141500
     47 H12         -2.5850    -1.6250     2.5520 h5         1 31V       0.071100
     48 H13          9.3110     0.7880    -0.3960 hn         1 31V       0.330500
     49 H14          8.6390     4.6610     3.9310 hc         1 31V       0.080200
     50 H15          8.9310     6.5030     4.1550 hc         1 31V       0.080200
     51 H16         13.4320     1.6260    -4.0770 ha         1 31V       0.135000
     52 H17         10.9000     0.4690    -0.8400 ha         1 31V       0.141500
     53 H20         -0.5740    -0.0250     5.6430 h1         1 31V       0.048033
     54 H21          0.7170    -0.9000     4.8070 h1         1 31V       0.048033
     55 H22          0.7100     0.8690     4.8170 h1         1 31V       0.048033
     56 H23         -2.5880     1.6510    -0.1750 h4         1 31V       0.174000
     57 H24         -5.4210     1.0800    -0.8630 hc         1 31V       0.043700
     58 H25         -5.4260     2.2130     0.4960 hc         1 31V       0.043700
     59 H26         -6.2960     0.6780     0.6210 hc         1 31V       0.043700
     60 C8           6.8920     0.0110     0.3140 c3         1 31V      -0.009700
     61 H9          12.0640    -0.0800    -2.9400 ha         1 31V       0.136000
     62 H18          6.7460     0.0960    -0.7560 h1         1 31V       0.089200
     63 H19          7.4150    -0.9130     0.5340 h1         1 31V       0.089200
@<TRIPOS>BOND
     1    22    14 ar  
     2    22    13 ar  
     3    14    15 ar  
     4    13    23 ar  
     5    15    21 ar  
     6    23    21 ar  
     7    21     3 1   
     8     3    20 1   
     9     3     8 1   
    10    20     9 2   
    11    18     8 1   
    12    18     7 1   
    13    60     7 1   
    14    60    24 1   
    15     8    10 2   
    16    25    24 1   
    17    25    26 2   
    18     7    17 2   
    19    24     6 1   
    20     9    10 1   
    21     9    11 1   
    22    26    27 1   
    23    19    11 1   
    24    19    12 1   
    25    11    12 1   
    26     6    27 2   
    27    27    28 1   
    28    28     4 ar  
    29    28     2 ar  
    30     4    29 ar  
    31    31    30 1   
    32     2     1 ar  
    33    29    30 1   
    34    29    32 ar  
    35     1    32 ar  
    36    32     5 1   
    37     5    33 1   
    38     5    16 1   
    39    33    34 2   
    40    16    36 2   
    41    34    36 1   
    42    34    35 1   
    43     1    37 1   
    44     2    38 1   
    45     4    39 1   
    46     6    40 1   
    47    10    41 1   
    48    11    42 1   
    49    12    43 1   
    50    12    44 1   
    51    13    61 1   
    52    14    45 1   
    53    15    46 1   
    54    16    47 1   
    55    18    48 1   
    56    19    49 1   
    57    19    50 1   
    58    22    51 1   
    59    23    52 1   
    60    60    62 1   
    61    60    63 1   
    62    31    53 1   
    63    31    54 1   
    64    31    55 1   
    65    33    56 1   
    66    35    57 1   
    67    35    58 1   
    68    35    59 1   
@<TRIPOS>SUBSTRUCTURE
     1 31V         1 TEMP              0 ****  ****    0 ROOT
