@<TRIPOS>MOLECULE
31V
   63    68     1     0     0
SMALL
bcc


@<TRIPOS>ATOM
      1 C2           0.0000     0.0000     0.0000 ca         1 31V      -0.053000
      2 C3           1.3800     0.0000     0.0000 ca         1 31V      -0.119000
      3 N4          10.9640     2.7920     0.3790 na         1 31V       0.591300
      4 C5           1.3800     0.0020     2.4130 ca         1 31V      -0.185000
      5 N6          -2.1000     0.0060     1.1970 na         1 31V       0.426000
      6 C7           4.3850     0.0010     0.3730 cc         1 31V      -0.450600
      7 C9           7.7080     1.1790     0.8040 c          1 31V       0.540100
      8 C10          9.7040     2.4660     0.7760 cc         1 31V      -0.248700
      9 C11         10.3630     4.2980     1.8630 cd         1 31V       0.427600
     10 C12          9.3150     3.3890     1.6970 cd         1 31V      -0.320300
     11 C13         10.3620     5.4850     2.7910 cx         1 31V      -0.132000
     12 C15         10.7610     5.2440     4.2480 cx         1 31V      -0.073900
     13 C18         12.1530     0.9120    -2.5150 ca         1 31V      -0.077000
     14 C20         13.0350     3.1390    -2.6160 ca         1 31V      -0.077000
     15 C21         12.3830     3.4530    -1.4390 ca         1 31V      -0.117500
     16 C22         -2.9110    -0.8320     1.8910 cc         1 31V       0.222400
     17 O            7.2470     1.9350     1.6330 o          1 31V      -0.580100
     18 N3           8.9490     1.3840     0.3220 ns         1 31V       0.007900
     19 C14          9.2990     5.5190     3.8920 cx         1 31V      -0.073900
     20 N5          11.3480     3.9420     1.0770 nc         1 31V      -0.654800
     21 C16         11.6170     2.4910    -0.7930 ca         1 31V      -0.135200
     22 C19         12.9210     1.8700    -3.1540 ca         1 31V      -0.104000
     23 C17         11.5000     1.2200    -1.3390 ca         1 31V      -0.117500
     24 N            5.5910     0.0070     0.9860 na         1 31V       0.616400
     25 N1           5.4010     0.0100     2.2580 nc         1 31V      -0.334800
     26 N2           4.1430     0.0070     2.5260 nd         1 31V      -0.307000
     27 C6           3.4540    -0.0000     1.3710 cd         1 31V       0.335800
     28 C4           2.0770     0.0000     1.2070 ca         1 31V      -0.064500
     29 C           -0.0030    -0.0040     2.4100 ca         1 31V       0.162100
     30 O1          -0.6870    -0.0130     3.5850 os         1 31V      -0.303900
     31 C26          0.0880    -0.0180     4.7850 c3         1 31V       0.241700
     32 C1          -0.6960     0.0010     1.2000 ca         1 31V      -0.219200
     33 C24         -2.9090     0.8550     0.4870 cc         1 31V      -0.450600
     34 C23         -4.1790     0.5090     0.7700 cd         1 31V       0.294600
     35 C25         -5.4180     1.1660     0.2170 c3         1 31V       0.004600
     36 N7          -4.1520    -0.5220     1.6270 nd         1 31V      -0.618000
     37 H1          -0.5410    -0.0000    -0.9390 ha         1 31V       0.117000
     38 H2           1.9220    -0.0010    -0.9380 ha         1 31V       0.107000
     39 H3           1.9200     0.0020     3.3520 ha         1 31V       0.157000
     40 H4           4.1970    -0.0040    -0.6940 h4         1 31V       0.163000
     41 H5           8.3610     3.4140     2.2100 ha         1 31V       0.192000
     42 H6          10.6400     6.4560     2.4000 hc         1 31V       0.065700
     43 H7          11.2860     6.0600     4.7300 hc         1 31V       0.049200
     44 H8          10.9950     4.2180     4.5050 hc         1 31V       0.049200
     45 H10         13.6340     3.8880    -3.1190 ha         1 31V       0.107000
     46 H11         12.4730     4.4470    -1.0180 ha         1 31V       0.120500
     47 H12         -2.5850    -1.6250     2.5520 h5         1 31V       0.028100
     48 H13          9.3110     0.7880    -0.3960 hn         1 31V       0.174500
     49 H14          8.6390     4.6610     3.9310 hc         1 31V       0.049200
     50 H15          8.9310     6.5030     4.1550 hc         1 31V       0.049200
     51 H16         13.4320     1.6260    -4.0770 ha         1 31V       0.108000
     52 H17         10.9000     0.4690    -0.8400 ha         1 31V       0.120500
     53 H20         -0.5740    -0.0250     5.6430 h1         1 31V       0.004367
     54 H21          0.7170    -0.9000     4.8070 h1         1 31V       0.004367
     55 H22          0.7100     0.8690     4.8170 h1         1 31V       0.004367
     56 H23         -2.5880     1.6510    -0.1750 h4         1 31V       0.154000
     57 H24         -5.4210     1.0800    -0.8630 hc         1 31V       0.004367
     58 H25         -5.4260     2.2130     0.4960 hc         1 31V       0.004367
     59 H26         -6.2960     0.6780     0.6210 hc         1 31V       0.004367
     60 C8           6.8920     0.0110     0.3140 c3         1 31V      -0.101700
     61 H9          12.0640    -0.0800    -2.9400 ha         1 31V       0.107000
     62 H18          6.7460     0.0960    -0.7560 h1         1 31V       0.051700
     63 H19          7.4150    -0.9130     0.5340 h1         1 31V       0.051700
@<TRIPOS>BOND
     1     1     2 ar  
     2     1    32 ar  
     3     1    37 1   
     4     2    28 ar  
     5     2    38 1   
     6     3     8 1   
     7     3    20 1   
     8     3    21 1   
     9     4    28 ar  
    10     4    29 ar  
    11     4    39 1   
    12     5    16 1   
    13     5    32 1   
    14     5    33 1   
    15     6    24 1   
    16     6    27 2   
    17     6    40 1   
    18     7    17 2   
    19     7    18 1   
    20     7    60 1   
    21     8    10 2   
    22     8    18 1   
    23     9    10 1   
    24     9    11 1   
    25     9    20 2   
    26    10    41 1   
    27    11    12 1   
    28    11    19 1   
    29    11    42 1   
    30    12    19 1   
    31    12    43 1   
    32    12    44 1   
    33    13    22 ar  
    34    13    23 ar  
    35    13    61 1   
    36    14    15 ar  
    37    14    22 ar  
    38    14    45 1   
    39    15    21 ar  
    40    15    46 1   
    41    16    36 2   
    42    16    47 1   
    43    18    48 1   
    44    19    49 1   
    45    19    50 1   
    46    21    23 ar  
    47    22    51 1   
    48    23    52 1   
    49    24    25 1   
    50    24    60 1   
    51    25    26 2   
    52    26    27 1   
    53    27    28 1   
    54    29    30 1   
    55    29    32 ar  
    56    30    31 1   
    57    31    53 1   
    58    31    54 1   
    59    31    55 1   
    60    33    34 2   
    61    33    56 1   
    62    34    35 1   
    63    34    36 1   
    64    35    57 1   
    65    35    58 1   
    66    35    59 1   
    67    60    62 1   
    68    60    63 1   
@<TRIPOS>SUBSTRUCTURE
     1 31V         1 TEMP              0 ****  ****    0 ROOT
