@<TRIPOS>MOLECULE
31W
   48    51     1     0     0
SMALL
bcc


@<TRIPOS>ATOM
      1 C2           0.0000     0.0000     0.0000 cx         1 31W      -0.098900
      2 C3           1.5300     0.0000     0.0000 cx         1 31W      -0.098900
      3 C5           0.6590    -3.2530     0.7540 ca         1 31W      -0.129300
      4 C7          -0.9130    -5.0480     0.4860 ca         1 31W      -0.129500
      5 C9          -3.1740    -7.8340     1.0920 cc         1 31W       0.353200
      6 C10         -2.9420    -7.8440     2.4090 cd         1 31W      -0.112400
      7 C11         -0.9460    -4.8080    -0.8890 ca         1 31W      -0.058000
      8 C12         -0.1780    -3.7960    -1.4280 ca         1 31W      -0.108000
      9 C13          0.6230    -3.0200    -0.6080 ca         1 31W      -0.106000
     10 C15         -1.2620    -1.3330     5.7360 ca         1 31W      -0.099000
     11 C18         -3.6600    -1.7740     9.0120 c3         1 31W       0.755700
     12 C20         -2.7250     0.3490     4.8390 ca         1 31W      -0.099000
     13 O1           0.1480    -2.3010     3.9570 o          1 31W      -0.699100
     14 C            0.0600    -1.3140     3.2520 c          1 31W       0.586100
     15 N2          -0.7430    -0.2950     3.6170 ns         1 31W      -0.044100
     16 C14         -1.5790    -0.4270     4.7340 ca         1 31W      -0.096400
     17 C19         -3.5490     0.2190     5.9390 ca         1 31W      -0.135500
     18 C17         -3.2340    -0.6910     6.9380 ca         1 31W       0.112100
     19 O           -4.0450    -0.8190     8.0220 os         1 31W      -0.315900
     20 F2          -4.5990    -1.7770    10.0490 f          1 31W      -0.197967
     21 F1          -3.6020    -3.0470     8.4330 f          1 31W      -0.197967
     22 F           -2.4020    -1.4370     9.5220 f          1 31W      -0.197967
     23 C16         -2.0880    -1.4670     6.8350 ca         1 31W      -0.135500
     24 N            0.7640    -1.2390     2.1060 n          1 31W      -0.113800
     25 C1           0.7640     0.0000     1.3250 cx         1 31W      -0.068300
     26 C4           1.5300    -2.3990     1.6400 c3         1 31W       0.110300
     27 C6          -0.1030    -4.2620     1.3060 ca         1 31W      -0.061000
     28 C8          -1.7330    -6.1320     1.0700 cd         1 31W       0.524900
     29 S           -1.7880    -6.5650     2.7760 ss         1 31W      -0.316300
     30 N1          -2.5210    -6.9260     0.4040 nc         1 31W      -0.570000
     31 H1          -0.4670    -0.9390    -0.2700 hc         1 31W       0.060950
     32 H2          -0.4670     0.9390    -0.2700 hc         1 31W       0.060950
     33 H3           1.9980    -0.9390    -0.2700 hc         1 31W       0.060950
     34 H4           1.9980     0.9390    -0.2700 hc         1 31W       0.060950
     35 H5          -3.8530    -8.5350     0.6220 h4         1 31W      -0.001900
     36 H6          -3.3890    -8.5220     3.1270 h4         1 31W       0.158000
     37 H7          -1.5720    -5.4150    -1.5310 ha         1 31W       0.124000
     38 H8          -0.2020    -3.6080    -2.4940 ha         1 31W       0.107000
     39 H9           1.2230    -2.2260    -1.0360 ha         1 31W       0.116000
     40 H10         -0.3670    -1.9390     5.6550 ha         1 31W       0.143000
     41 H11         -2.9730     1.0580     4.0580 ha         1 31W       0.143000
     42 H12         -0.7150     0.5690     3.1120 hn         1 31W       0.171500
     43 H13         -4.4440     0.8250     6.0210 ha         1 31W       0.124000
     44 H14         -1.8420    -2.1760     7.6160 ha         1 31W       0.124000
     45 H15          0.7640     0.9480     1.8480 h1         1 31W       0.067700
     46 H16          2.3930    -2.0600     1.0790 h1         1 31W       0.044200
     47 H17          1.8590    -2.9810     2.4920 h1         1 31W       0.044200
     48 H18         -0.0740    -4.4430     2.3730 ha         1 31W       0.139000
@<TRIPOS>BOND
     1     1     2 1   
     2     1    25 1   
     3     1    31 1   
     4     1    32 1   
     5     2    25 1   
     6     2    33 1   
     7     2    34 1   
     8     3     9 ar  
     9     3    26 1   
    10     3    27 ar  
    11     4     7 ar  
    12     4    27 ar  
    13     4    28 1   
    14     5     6 2   
    15     5    30 1   
    16     5    35 1   
    17     6    29 1   
    18     6    36 1   
    19     7     8 ar  
    20     7    37 1   
    21     8     9 ar  
    22     8    38 1   
    23     9    39 1   
    24    10    16 ar  
    25    10    23 ar  
    26    10    40 1   
    27    11    19 1   
    28    11    20 1   
    29    11    21 1   
    30    11    22 1   
    31    12    16 ar  
    32    12    17 ar  
    33    12    41 1   
    34    13    14 2   
    35    14    15 1   
    36    14    24 1   
    37    15    16 1   
    38    15    42 1   
    39    17    18 ar  
    40    17    43 1   
    41    18    19 1   
    42    18    23 ar  
    43    23    44 1   
    44    24    25 1   
    45    24    26 1   
    46    25    45 1   
    47    26    46 1   
    48    26    47 1   
    49    27    48 1   
    50    28    29 1   
    51    28    30 2   
@<TRIPOS>SUBSTRUCTURE
     1 31W         1 TEMP              0 ****  ****    0 ROOT
