@<TRIPOS>MOLECULE
molecule
   48    51     1     0     0
SMALL
bcc


@<TRIPOS>ATOM
      1 C2           0.0000     0.0000     0.0000 cx         1 31W      -0.149900
      2 C3           1.5300     0.0000     0.0000 cx         1 31W      -0.149900
      3 C5           0.6590    -3.2530     0.7540 ca         1 31W      -0.122300
      4 C7          -0.9130    -5.0480     0.4860 ca         1 31W      -0.126500
      5 C9          -3.1740    -7.8340     1.0920 cc         1 31W       0.365200
      6 C10         -2.9420    -7.8440     2.4090 cd         1 31W      -0.185400
      7 C11         -0.9460    -4.8080    -0.8890 ca         1 31W      -0.079000
      8 C12         -0.1780    -3.7960    -1.4280 ca         1 31W      -0.139000
      9 C13          0.6230    -3.0200    -0.6080 ca         1 31W      -0.120000
     10 C15         -1.2620    -1.3330     5.7360 ca         1 31W      -0.126000
     11 C18         -3.6600    -1.7740     9.0120 c3         1 31W       0.795700
     12 C20         -2.7250     0.3490     4.8390 ca         1 31W      -0.126000
     13 O1           0.1480    -2.3010     3.9570 o          1 31W      -0.654100
     14 C            0.0600    -1.3140     3.2520 c          1 31W       0.798100
     15 N2          -0.7430    -0.2950     3.6170 ns         1 31W      -0.481100
     16 C14         -1.5790    -0.4270     4.7340 ca         1 31W       0.053600
     17 C19         -3.5490     0.2190     5.9390 ca         1 31W      -0.148500
     18 C17         -3.2340    -0.6910     6.9380 ca         1 31W       0.098100
     19 O           -4.0450    -0.8190     8.0220 os         1 31W      -0.342900
     20 F2          -4.5990    -1.7770    10.0490 f          1 31W      -0.205967
     21 F1          -3.6020    -3.0470     8.4330 f          1 31W      -0.205967
     22 F           -2.4020    -1.4370     9.5220 f          1 31W      -0.205967
     23 C16         -2.0880    -1.4670     6.8350 ca         1 31W      -0.148500
     24 N            0.7640    -1.2390     2.1060 n          1 31W      -0.466800
     25 C1           0.7640     0.0000     1.3250 cx         1 31W       0.025700
     26 C4           1.5300    -2.3990     1.6400 c3         1 31W       0.170300
     27 C6          -0.1030    -4.2620     1.3060 ca         1 31W      -0.086000
     28 C8          -1.7330    -6.1320     1.0700 cc         1 31W       0.527900
     29 S           -1.7880    -6.5650     2.7760 ss         1 31W      -0.219300
     30 N1          -2.5210    -6.9260     0.4040 nd         1 31W      -0.684000
     31 H1          -0.4670    -0.9390    -0.2700 hc         1 31W       0.086200
     32 H2          -0.4670     0.9390    -0.2700 hc         1 31W       0.086200
     33 H3           1.9980    -0.9390    -0.2700 hc         1 31W       0.086200
     34 H4           1.9980     0.9390    -0.2700 hc         1 31W       0.086200
     35 H5          -3.8530    -8.5350     0.6220 h4         1 31W       0.041100
     36 H6          -3.3890    -8.5220     3.1270 h4         1 31W       0.180000
     37 H7          -1.5720    -5.4150    -1.5310 ha         1 31W       0.156000
     38 H8          -0.2020    -3.6080    -2.4940 ha         1 31W       0.135000
     39 H9           1.2230    -2.2260    -1.0360 ha         1 31W       0.133000
     40 H10         -0.3670    -1.9390     5.6550 ha         1 31W       0.166000
     41 H11         -2.9730     1.0580     4.0580 ha         1 31W       0.166000
     42 H12         -0.7150     0.5690     3.1120 hn         1 31W       0.325500
     43 H13         -4.4440     0.8250     6.0210 ha         1 31W       0.150500
     44 H14         -1.8420    -2.1760     7.6160 ha         1 31W       0.150500
     45 H15          0.7640     0.9480     1.8480 h1         1 31W       0.090700
     46 H16          2.3930    -2.0600     1.0790 h1         1 31W       0.072700
     47 H17          1.8590    -2.9810     2.4920 h1         1 31W       0.072700
     48 H18         -0.0740    -4.4430     2.3730 ha         1 31W       0.157000
@<TRIPOS>BOND
     1    17    12 ar  
     2    17    18 ar  
     3    12    16 ar  
     4    20    11 1   
     5     1    25 1   
     6     1     2 1   
     7    25     2 1   
     8    25    24 1   
     9    18    19 1   
    10    18    23 ar  
    11    16    15 1   
    12    16    10 ar  
    13    19    11 1   
    14    15    14 1   
    15    11    22 1   
    16    11    21 1   
    17    24    14 1   
    18    24    26 1   
    19    14    13 2   
    20    23    10 ar  
    21    26     3 1   
    22     3     9 ar  
    23     3    27 ar  
    24     9     8 ar  
    25    27     4 ar  
    26     8     7 ar  
    27     4     7 ar  
    28     4    28 1   
    29    29    28 1   
    30    29     6 1   
    31    28    30 2   
    32     6     5 2   
    33    30     5 1   
    34     1    31 1   
    35     1    32 1   
    36     2    33 1   
    37     2    34 1   
    38     5    35 1   
    39     6    36 1   
    40     7    37 1   
    41     8    38 1   
    42     9    39 1   
    43    10    40 1   
    44    12    41 1   
    45    15    42 1   
    46    17    43 1   
    47    23    44 1   
    48    25    45 1   
    49    26    46 1   
    50    26    47 1   
    51    27    48 1   
@<TRIPOS>SUBSTRUCTURE
     1 31W         1 TEMP              0 ****  ****    0 ROOT
