@<TRIPOS>MOLECULE
31X
   51    52     1     0     0
SMALL
bcc


@<TRIPOS>ATOM
      1 C2         -0.2900    0.6230    0.5700 c2        1 31X      0.080000
      2 C3         -1.3490    1.3770   -0.0380 c2        1 31X     -0.403000
      3 C5         -2.3950    0.1280   -4.3900 c1        1 31X     -0.268500
      4 C7         -0.1060   -3.5880   -3.2570 c1        1 31X      0.141000
      5 C9          3.0120    2.1890    3.0720 c2        1 31X     -0.224000
      6 C10         2.3760    1.4240    4.1270 c2        1 31X      0.396000
      7 C11         3.6030    3.4470    3.3030 c2        1 31X     -0.061000
      8 C12         4.0900    3.9070    2.0340 c2        1 31X     -0.267000
      9 C13         4.7770    5.0500    1.6060 c2        1 31X      0.211000
     10 C15         5.9650    7.1750    2.0340 ca        1 31X      0.085000
     11 C18         9.1710    9.9630   -0.1820 c1        1 31X     -0.268500
     12 C20         6.5620    7.0790    0.7470 c1        1 31X     -0.422000
     13 C21         5.5870    8.4150    4.0850 ca        1 31X     -0.113000
     14 C22         4.5470    7.5290    4.4290 ca        1 31X     -0.175000
     15 O2          1.9640    0.1060    4.0230 os        1 31X     -0.258000
     16 O1          2.1340    1.8360    5.2690 o         1 31X     -0.346000
     17 C26         3.7520    2.8130    1.1010 c2        1 31X     -0.071000
     18 N           3.1020    1.8150    1.7120 n2        1 31X     -0.164000
     19 C1          1.2760   -0.3360    1.7270 c2        1 31X     -0.065000
     20 N2          0.2430    0.6440    1.7910 n2        1 31X     -0.106000
     21 C8         -0.1970   -2.3240   -2.9610 c2        1 31X     -0.556000
     22 C6         -2.4120   -0.4320   -5.4470 c1        1 31X     -0.268500
     23 C4         -1.8780    1.2520   -1.2380 c1        1 31X      0.242000
     24 O           0.3800   -0.3570   -0.2330 os        1 31X     -0.112000
     25 N1          1.3210   -0.9140    0.4980 n2        1 31X     -0.052000
     26 C25         4.1650    2.9170   -0.3120 c3        1 31X     -0.163000
     27 C24         5.0360    4.0780   -0.6090 c1        1 31X     -0.067000
     28 N3          5.3100    5.0350    0.2930 n3        1 31X     -0.084000
     29 C14         4.9890    6.2210    2.4350 ca        1 31X     -0.147000
     30 C23         4.2460    6.4570    3.6150 ca        1 31X     -0.084000
     31 C16         6.2740    8.2500    2.9020 ca        1 31X     -0.124000
     32 C17         8.3920    9.0860    0.0730 c1        1 31X     -0.268500
     33 C19         6.2050    6.0930   -0.0880 c2        1 31X     -0.078000
     34 H1         -1.7610    2.1910    0.6100 ha        1 31X      0.231000
     35 H2         -2.4240   -0.9270   -6.3840 ha        1 31X      0.242000
     36 H3          3.7010    3.9250    4.2740 ha        1 31X      0.155000
     37 H4          6.5540    5.9940   -1.1280 h4        1 31X      0.163000
     38 H5          7.6510    8.2530    0.3160 ha        1 31X      0.242000
     39 H6          3.9700    7.7040    5.3480 ha        1 31X      0.121000
     40 H7          5.8280    9.2490    4.7600 ha        1 31X      0.118000
     41 H9          3.2710   -0.5640    2.5200 h1        1 31X      0.121000
     42 H10         2.0020   -1.7150    3.2020 h1        1 31X      0.121000
     43 H11         0.3210   -1.8600   -2.1000 ha        1 31X      0.205000
     44 H12        -0.7950   -1.5940   -3.5360 ha        1 31X      0.205000
     45 H13        -2.3780    0.6290   -3.4480 ha        1 31X      0.242000
     46 H14         3.2680    2.9940   -0.9910 hc        1 31X      0.141500
     47 H15         4.7330    1.9960   -0.6310 hc        1 31X      0.141500
     48 H16         3.3960    5.8060    3.8670 ha        1 31X      0.137000
     49 H17         7.0630    8.9520    2.5860 ha        1 31X      0.156000
     50 H18         9.8580   10.7340   -0.4080 ha        1 31X      0.242000
     51 C           2.2050   -0.6580    2.8610 c3        1 31X      0.078000
@<TRIPOS>BOND
     1    1    2 1
     2    1   20 1
     3    1   24 1
     4    2   23 1
     5    2   34 1
     6    3   22 1
     7    3   45 1
     8    4   21 1
     9    5    6 1
    10    5    7 1
    11    5   18 1
    12    6   15 1
    13    6   16 1
    14    7    8 1
    15    7   36 1
    16    8    9 1
    17    8   17 1
    18    9   28 1
    19    9   29 1
    20   10   12 1
    21   10   29 1
    22   10   31 1
    23   11   32 1
    24   11   50 1
    25   12   33 1
    26   13   14 1
    27   13   31 1
    28   13   40 1
    29   14   30 1
    30   14   39 1
    31   15   51 1
    32   17   18 1
    33   17   26 1
    34   19   20 1
    35   19   25 1
    36   19   51 1
    37   21   43 1
    38   21   44 1
    39   22   35 1
    40   24   25 1
    41   26   27 1
    42   26   46 1
    43   26   47 1
    44   27   28 1
    45   28   33 1
    46   29   30 1
    47   30   48 1
    48   31   49 1
    49   32   38 1
    50   33   37 1
    51   41   51 1
    52   42   51 1
@<TRIPOS>SUBSTRUCTURE
     1 31X         1 TEMP              0 ****  ****    0 ROOT
