@<TRIPOS>MOLECULE
molecule
   54    58     1     0     0
SMALL
bcc


@<TRIPOS>ATOM
      1 C2           0.0000     0.0000     0.0000 ca         1 31Y       0.312300
      2 C3           2.0040     0.0000     1.1310 ca         1 31Y       0.703900
      3 N4          -8.3360     1.2080    -0.1660 nb         1 31Y      -0.688000
      4 C5          -2.1060     0.0020    -1.1050 ca         1 31Y      -0.273300
      5 N6           2.5660     0.4820     8.2790 nh         1 31Y      -0.594000
      6 C7          -4.9100     0.0040    -0.9970 c3         1 31Y       0.292100
      7 C9          -7.0540     1.1990    -0.4770 ca         1 31Y       0.438200
      8 C10         -9.0170     0.0910    -0.0010 ca         1 31Y       0.430200
      9 C11         -8.4050    -1.1390    -0.1500 ca         1 31Y      -0.256300
     10 C12         -7.0590    -1.1880    -0.4760 ca         1 31Y      -0.074000
     11 C13          0.2610     0.1180     4.8230 ca         1 31Y       0.124600
     12 C15          0.6290    -0.4010     7.1370 ca         1 31Y      -0.149000
     13 C18          1.4230     0.8780     4.8060 ca         1 31Y      -0.119500
     14 C20          4.5300     1.4800     9.3440 c3         1 31Y       0.136900
     15 C21          3.7560    -0.6620    10.0860 c3         1 31Y       0.136900
     16 C22          2.9650    -0.8390     8.7870 c3         1 31Y       0.124800
     17 O            4.8810     0.1860     9.8410 os         1 31Y      -0.423600
     18 C19          3.7460     1.3250     8.0380 c3         1 31Y       0.124800
     19 C16          1.7930     0.3590     7.1190 ca         1 31Y       0.084600
     20 C14         -0.1340    -0.5200     5.9920 ca         1 31Y      -0.119500
     21 C17          2.1870     0.9980     5.9500 ca         1 31Y      -0.149000
     22 C            0.0890     0.0010     2.4250 ca         1 31Y       0.675900
     23 N1           1.4100     0.0010     2.3130 nb         1 31Y      -0.812000
     24 N            1.3390     0.0000     0.0000 nb         1 31Y      -0.757000
     25 C1          -0.6860     0.0010     1.2370 ca         1 31Y       0.192000
     26 N2          -2.0180     0.0020     1.2670 nb         1 31Y      -0.762000
     27 C6          -2.7240     0.0030     0.1540 ca         1 31Y       0.694200
     28 C4          -0.7460     0.0060    -1.1940 ca         1 31Y      -0.107300
     29 N3          -4.1110     0.0030     0.2290 nu         1 31Y      -0.919900
     30 C8          -6.3750     0.0060    -0.6420 ca         1 31Y      -0.246600
     31 H1           3.0870    -0.0010     1.0950 h5         1 31Y       0.057100
     32 H2          -2.7090     0.0030    -2.0060 ha         1 31Y       0.142000
     33 H3          -4.6790     0.8880    -1.5790 h1         1 31Y       0.047200
     34 H4          -4.6810    -0.8810    -1.5790 h1         1 31Y       0.047200
     35 H5          -6.5270     2.1370    -0.6040 h4         1 31Y       0.029100
     36 H6         -10.0690     0.1380     0.2530 h4         1 31Y       0.027100
     37 H7          -8.9700    -2.0530    -0.0130 ha         1 31Y       0.143000
     38 H8          -6.5530    -2.1380    -0.5990 ha         1 31Y       0.144000
     39 H9           0.3210    -0.8980     8.0480 ha         1 31Y       0.138000
     40 H10          1.7320     1.3760     3.8950 ha         1 31Y       0.146000
     41 H11          3.9150     1.9920    10.0740 h1         1 31Y       0.054450
     42 H12          5.4310     2.0520     9.1580 h1         1 31Y       0.054450
     43 H13          4.1010    -1.6280    10.4330 h1         1 31Y       0.054450
     44 H14          3.1200    -0.2080    10.8370 h1         1 31Y       0.054450
     45 H15          2.0800    -1.4330     8.9820 h1         1 31Y       0.051700
     46 H16          3.5860    -1.3360     8.0520 h1         1 31Y       0.051700
     47 H17          4.3770     0.8570     7.2920 h1         1 31Y       0.051700
     48 H18          3.4280     2.3000     7.6900 h1         1 31Y       0.051700
     49 H19         -1.0410    -1.1120     6.0060 ha         1 31Y       0.146000
     50 H20          3.0940     1.5910     5.9360 ha         1 31Y       0.138000
     51 H21         -1.5120    -0.0610     3.7360 hn         1 31Y       0.474800
     52 H22         -0.2520     0.0060    -2.1580 ha         1 31Y       0.159000
     53 H23         -4.5630     0.0300     1.1220 hn         1 31Y       0.454800
     54 N5          -0.5160     0.0020     3.6650 nu         1 31Y      -0.739300
@<TRIPOS>BOND
     1     6    30 1   
     2     6    29 1   
     3    30     7 ar  
     4    30    10 ar  
     5     7     3 ar  
     6    10     9 ar  
     7     3     8 ar  
     8    29    27 1   
     9     9     8 ar  
    10    27    26 ar  
    11    27     4 ar  
    12    16    15 1   
    13    16     5 1   
    14    15    17 1   
    15    26    25 ar  
    16    13    21 ar  
    17    13    11 ar  
    18    21    19 ar  
    19     4    28 ar  
    20    17    14 1   
    21    54    11 1   
    22    54    22 1   
    23    11    20 ar  
    24     5    19 1   
    25     5    18 1   
    26    19    12 ar  
    27    25    22 ar  
    28    25     1 ar  
    29    22    23 ar  
    30    28     1 ar  
    31    20    12 ar  
    32    14    18 1   
    33     1    24 ar  
    34    23     2 ar  
    35    24     2 ar  
    36     2    31 1   
    37     4    32 1   
    38     6    33 1   
    39     6    34 1   
    40     7    35 1   
    41     8    36 1   
    42     9    37 1   
    43    10    38 1   
    44    12    39 1   
    45    13    40 1   
    46    14    41 1   
    47    14    42 1   
    48    15    43 1   
    49    15    44 1   
    50    16    45 1   
    51    16    46 1   
    52    18    47 1   
    53    18    48 1   
    54    20    49 1   
    55    21    50 1   
    56    54    51 1   
    57    28    52 1   
    58    29    53 1   
@<TRIPOS>SUBSTRUCTURE
     1 31Y         1 TEMP              0 ****  ****    0 ROOT
