@<TRIPOS>MOLECULE
31Y
   54    58     1     0     0
SMALL
bcc


@<TRIPOS>ATOM
      1 C2           0.0000     0.0000     0.0000 ca         1 31Y       0.277300
      2 C3           2.0040     0.0000     1.1310 ca         1 31Y       0.659900
      3 N4          -8.3360     1.2080    -0.1660 nb         1 31Y      -0.580000
      4 C5          -2.1060     0.0020    -1.1050 ca         1 31Y      -0.259300
      5 N6           2.5660     0.4820     8.2790 nh         1 31Y      -0.359000
      6 C7          -4.9100     0.0040    -0.9970 c3         1 31Y       0.234100
      7 C9          -7.0540     1.1990    -0.4770 ca         1 31Y       0.423200
      8 C10         -9.0170     0.0910    -0.0010 ca         1 31Y       0.415200
      9 C11         -8.4050    -1.1390    -0.1500 ca         1 31Y      -0.222300
     10 C12         -7.0590    -1.1880    -0.4760 ca         1 31Y      -0.049000
     11 C13          0.2610     0.1180     4.8230 ca         1 31Y      -0.038400
     12 C15          0.6290    -0.4010     7.1370 ca         1 31Y      -0.127500
     13 C18          1.4230     0.8780     4.8060 ca         1 31Y      -0.090000
     14 C20          4.5300     1.4800     9.3440 c3         1 31Y       0.212900
     15 C21          3.7560    -0.6620    10.0860 c3         1 31Y       0.212900
     16 C22          2.9650    -0.8390     8.7870 c3         1 31Y       0.094300
     17 O            4.8810     0.1860     9.8410 os         1 31Y      -0.410600
     18 C19          3.7460     1.3250     8.0380 c3         1 31Y       0.094300
     19 C16          1.7930     0.3590     7.1190 ca         1 31Y       0.006600
     20 C14         -0.1340    -0.5200     5.9920 ca         1 31Y      -0.090000
     21 C17          2.1870     0.9980     5.9500 ca         1 31Y      -0.127500
     22 C            0.0890     0.0010     2.4250 ca         1 31Y       0.461900
     23 N1           1.4100     0.0010     2.3130 nb         1 31Y      -0.714000
     24 N            1.3390     0.0000     0.0000 nb         1 31Y      -0.660000
     25 C1          -0.6860     0.0010     1.2370 ca         1 31Y       0.153000
     26 N2          -2.0180     0.0020     1.2670 nb         1 31Y      -0.648000
     27 C6          -2.7240     0.0030     0.1540 ca         1 31Y       0.510200
     28 C4          -0.7460     0.0060    -1.1940 ca         1 31Y      -0.077300
     29 N3          -4.1110     0.0030     0.2290 nu         1 31Y      -0.518900
     30 C8          -6.3750     0.0060    -0.6420 ca         1 31Y      -0.246600
     31 H1           3.0870    -0.0010     1.0950 h5         1 31Y      -0.004900
     32 H2          -2.7090     0.0030    -2.0060 ha         1 31Y       0.122000
     33 H3          -4.6790     0.8880    -1.5790 h1         1 31Y       0.019700
     34 H4          -4.6810    -0.8810    -1.5790 h1         1 31Y       0.019700
     35 H5          -6.5270     2.1370    -0.6040 h4         1 31Y      -0.014900
     36 H6         -10.0690     0.1380     0.2530 h4         1 31Y      -0.017900
     37 H7          -8.9700    -2.0530    -0.0130 ha         1 31Y       0.117000
     38 H8          -6.5530    -2.1380    -0.5990 ha         1 31Y       0.114000
     39 H9           0.3210    -0.8980     8.0480 ha         1 31Y       0.118000
     40 H10          1.7320     1.3760     3.8950 ha         1 31Y       0.121000
     41 H11          3.9150     1.9920    10.0740 h1         1 31Y       0.013200
     42 H12          5.4310     2.0520     9.1580 h1         1 31Y       0.013200
     43 H13          4.1010    -1.6280    10.4330 h1         1 31Y       0.013200
     44 H14          3.1200    -0.2080    10.8370 h1         1 31Y       0.013200
     45 H15          2.0800    -1.4330     8.9820 h1         1 31Y       0.026950
     46 H16          3.5860    -1.3360     8.0520 h1         1 31Y       0.026950
     47 H17          4.3770     0.8570     7.2920 h1         1 31Y       0.026950
     48 H18          3.4280     2.3000     7.6900 h1         1 31Y       0.026950
     49 H19         -1.0410    -1.1120     6.0060 ha         1 31Y       0.121000
     50 H20          3.0940     1.5910     5.9360 ha         1 31Y       0.118000
     51 H21         -1.5120    -0.0610     3.7360 hn         1 31Y       0.300800
     52 H22         -0.2520     0.0060    -2.1580 ha         1 31Y       0.122000
     53 H23         -4.5630     0.0300     1.1220 hn         1 31Y       0.304800
     54 N5          -0.5160     0.0020     3.6650 nu         1 31Y      -0.255300
@<TRIPOS>BOND
     1     1    24 ar  
     2     1    25 ar  
     3     1    28 ar  
     4     2    23 ar  
     5     2    24 ar  
     6     2    31 1   
     7     3     7 ar  
     8     3     8 ar  
     9     4    27 ar  
    10     4    28 ar  
    11     4    32 1   
    12     5    16 1   
    13     5    18 1   
    14     5    19 1   
    15     6    29 1   
    16     6    30 1   
    17     6    33 1   
    18     6    34 1   
    19     7    30 ar  
    20     7    35 1   
    21     8     9 ar  
    22     8    36 1   
    23     9    10 ar  
    24     9    37 1   
    25    10    30 ar  
    26    10    38 1   
    27    11    13 ar  
    28    11    20 ar  
    29    11    54 1   
    30    12    19 ar  
    31    12    20 ar  
    32    12    39 1   
    33    13    21 ar  
    34    13    40 1   
    35    14    17 1   
    36    14    18 1   
    37    14    41 1   
    38    14    42 1   
    39    15    16 1   
    40    15    17 1   
    41    15    43 1   
    42    15    44 1   
    43    16    45 1   
    44    16    46 1   
    45    18    47 1   
    46    18    48 1   
    47    19    21 ar  
    48    20    49 1   
    49    21    50 1   
    50    22    23 ar  
    51    22    25 ar  
    52    22    54 1   
    53    25    26 ar  
    54    26    27 ar  
    55    27    29 1   
    56    28    52 1   
    57    29    53 1   
    58    51    54 1   
@<TRIPOS>SUBSTRUCTURE
     1 31Y         1 TEMP              0 ****  ****    0 ROOT
