@<TRIPOS>MOLECULE
molecule
   56    59     1     0     0
SMALL
bcc


@<TRIPOS>ATOM
      1 C1           0.0000     0.0000     0.0000 c3         1 31Z      -0.009900
      2 C2           1.5070     0.0000     0.0000 cc         1 31Z      -0.296400
      3 C3           2.1920     0.0000     1.1640 cd         1 31Z       0.043600
      4 N4           3.5600    -0.0010     1.1460 n          1 31Z      -0.356000
      5 C5           4.2290    -0.0000    -0.0200 c          1 31Z       0.806500
      6 O6           5.4450     0.0050    -0.0130 o          1 31Z      -0.654500
      7 N7           3.5730     0.0010    -1.1960 ns         1 31Z      -0.562500
      8 C8           2.2240    -0.0050    -1.2210 c          1 31Z       0.711700
      9 O9           1.6300    -0.0040    -2.2830 o          1 31Z      -0.633500
     10 C10          4.3020    -0.0010     2.4090 c3         1 31Z       0.120700
     11 C11          5.1870    -1.2490     2.4820 c3         1 31Z      -0.105400
     12 C12          6.0030    -1.2120     3.7770 c3         1 31Z      -0.075400
     13 C13          6.8350     0.0730     3.8110 c3         1 31Z       0.148800
     14 N14          5.9430     1.2370     3.7410 n3         1 31Z      -0.725600
     15 C15          5.1830     1.2480     2.4840 c3         1 31Z       0.140800
     16 C16          6.6960     2.4880     3.9110 c3         1 31Z       0.222100
     17 C17          7.2560     2.5500     5.3090 ca         1 31Z      -0.140300
     18 C18          6.6100     3.3010     6.2760 ca         1 31Z      -0.118000
     19 C19          7.1120     3.3660     7.5580 ca         1 31Z      -0.101000
     20 C20          8.2800     2.6710     7.8850 ca         1 31Z      -0.079600
     21 C21          8.9320     1.9110     6.9040 ca         1 31Z       0.071100
     22 C22          8.4080     1.8530     5.6190 ca         1 31Z       0.088900
     23 F23          9.0290     1.1180     4.6700 f          1 31Z      -0.151900
     24 O24         10.0660     1.2330     7.2090 os         1 31Z      -0.200200
     25 C25          9.9440    -0.0440     7.6590 ca         1 31Z       0.206100
     26 C26          8.6880    -0.6180     7.7890 ca         1 31Z      -0.204000
     27 C27          8.5660    -1.9160     8.2460 ca         1 31Z      -0.089000
     28 C28          9.6950    -2.6430     8.5750 ca         1 31Z      -0.180000
     29 C29         10.9500    -2.0740     8.4470 ca         1 31Z       0.060400
     30 C30         11.0770    -0.7770     7.9840 ca         1 31Z      -0.142000
     31 Cl          12.3650    -2.9900     8.8610 cl         1 31Z      -0.139400
     32 C32          8.8240     2.7370     9.2540 c          1 31Z       0.876200
     33 O33          9.8380     2.1310     9.5340 o          1 31Z      -0.815300
     34 O34          8.1940     3.4690    10.1940 o          1 31Z      -0.815300
     35 H1          -0.3610     0.0080     1.0210 hc         1 31Z       0.044367
     36 H2          -0.3610     0.8800    -0.5180 hc         1 31Z       0.044367
     37 H3          -0.3610    -0.8890    -0.5040 hc         1 31Z       0.044367
     38 H4           1.6600    -0.0010     2.1080 h4         1 31Z       0.167000
     39 H5           4.0870    -0.0010    -2.0550 hn         1 31Z       0.359500
     40 H6           3.6090    -0.0020     3.2410 h1         1 31Z       0.078700
     41 H7           4.5620    -2.1350     2.4740 hc         1 31Z       0.058200
     42 H8           5.8580    -1.2660     1.6320 hc         1 31Z       0.058200
     43 H9           6.6640    -2.0700     3.8110 hc         1 31Z       0.051200
     44 H10          5.3320    -1.2300     4.6270 hc         1 31Z       0.051200
     45 H11          7.5110     0.0860     2.9650 h1         1 31Z       0.058700
     46 H12          7.4020     0.1090     4.7340 h1         1 31Z       0.058700
     47 H14          4.5580     2.1310     2.4490 h1         1 31Z       0.052200
     48 H15          5.8710     1.2530     1.6470 h1         1 31Z       0.052200
     49 H16          6.0370     3.3310     3.7490 h1         1 31Z       0.039200
     50 H17          7.5080     2.5210     3.1950 h1         1 31Z       0.039200
     51 H18          5.7040     3.8400     6.0240 ha         1 31Z       0.121000
     52 H19          6.6030     3.9550     8.3110 ha         1 31Z       0.168000
     53 H20          7.8010    -0.0330     7.5770 ha         1 31Z       0.149000
     54 H21          7.5840    -2.3590     8.3620 ha         1 31Z       0.123000
     55 H22          9.5980    -3.6610     8.9340 ha         1 31Z       0.126000
     56 H23         12.0610    -0.3560     7.8170 ha         1 31Z       0.152000
@<TRIPOS>BOND
     1    12    11 1
     2    12    13 1
     3    11    10 1
     4    10     4 1
     5    10    15 1
     6     6     5 2
     7     5     7 1
     8     5     4 1
     9     7     8 1
    10     4     3 1
    11     8     9 2
    12     8     2 1
    13     3     2 2
    14     2     1 1
    15    13    14 1
    16    14    15 1
    17    14    16 1
    18    16    17 1
    19    18    17 ar
    20    18    19 ar
    21    17    22 ar
    22    27    26 ar
    23    27    28 ar
    24    19    20 ar
    25    22    23 1
    26    22    21 ar
    27    26    25 ar
    28    28    29 ar
    29    20    21 ar
    30    20    32 1
    31    21    24 1
    32    25    24 1
    33    25    30 ar
    34    33    32 1
    35    32    34 1
    36    29    30 ar
    37    29    31 1
    38     1    35 1
    39     1    36 1
    40     1    37 1
    41     3    38 1
    42     7    39 1
    43    10    40 1
    44    11    41 1
    45    11    42 1
    46    12    43 1
    47    12    44 1
    48    13    45 1
    49    13    46 1
    50    15    47 1
    51    15    48 1
    52    16    49 1
    53    16    50 1
    54    18    51 1
    55    19    52 1
    56    26    53 1
    57    27    54 1
    58    28    55 1
    59    30    56 1
@<TRIPOS>SUBSTRUCTURE
     1 31Z         1 TEMP              0 ****  ****    0 ROOT
