@<TRIPOS>MOLECULE
31Z
   56    59     1     0     0
SMALL
bcc


@<TRIPOS>ATOM
      1 C1           0.0000     0.0000     0.0000 c3         1 31Z       0.106100
      2 C2           1.5070     0.0000     0.0000 cc         1 31Z      -0.298400
      3 C3           2.1920     0.0000     1.1640 cd         1 31Z      -0.088400
      4 N4           3.5600    -0.0010     1.1460 n          1 31Z       0.065000
      5 C5           4.2290    -0.0000    -0.0200 c          1 31Z       0.584500
      6 O6           5.4450     0.0050    -0.0130 o          1 31Z      -0.702500
      7 N7           3.5730     0.0010    -1.1960 ns         1 31Z      -0.131500
      8 C8           2.2240    -0.0050    -1.2210 c          1 31Z       0.624700
      9 O9           1.6300    -0.0040    -2.2830 o          1 31Z      -0.672500
     10 C10          4.3020    -0.0010     2.4090 c3         1 31Z       0.015700
     11 C11          5.1870    -1.2490     2.4820 c3         1 31Z      -0.064400
     12 C12          6.0030    -1.2120     3.7770 c3         1 31Z      -0.011400
     13 C13          6.8350     0.0730     3.8110 c3         1 31Z       0.110800
     14 N14          5.9430     1.2370     3.7410 n3         1 31Z      -0.528600
     15 C15          5.1830     1.2480     2.4840 c3         1 31Z       0.117800
     16 C16          6.6960     2.4880     3.9110 c3         1 31Z       0.223100
     17 C17          7.2560     2.5500     5.3090 ca         1 31Z      -0.143300
     18 C18          6.6100     3.3010     6.2760 ca         1 31Z      -0.101000
     19 C19          7.1120     3.3660     7.5580 ca         1 31Z      -0.064000
     20 C20          8.2800     2.6710     7.8850 ca         1 31Z      -0.086600
     21 C21          8.9320     1.9110     6.9040 ca         1 31Z       0.090100
     22 C22          8.4080     1.8530     5.6190 ca         1 31Z       0.051900
     23 F23          9.0290     1.1180     4.6700 f          1 31Z      -0.136900
     24 O24         10.0660     1.2330     7.2090 os         1 31Z      -0.174200
     25 C25          9.9440    -0.0440     7.6590 ca         1 31Z       0.219100
     26 C26          8.6880    -0.6180     7.7890 ca         1 31Z      -0.198000
     27 C27          8.5660    -1.9160     8.2460 ca         1 31Z      -0.053000
     28 C28          9.6950    -2.6430     8.5750 ca         1 31Z      -0.169000
     29 C29         10.9500    -2.0740     8.4470 ca         1 31Z       0.012400
     30 C30         11.0770    -0.7770     7.9840 ca         1 31Z      -0.132000
     31 Cl          12.3650    -2.9900     8.8610 cl         1 31Z      -0.071400
     32 C32          8.8240     2.7370     9.2540 c          1 31Z       0.965200
     33 O33          9.8380     2.1310     9.5340 o          1 31Z      -0.865800
     34 O34          8.1940     3.4690    10.1940 o          1 31Z      -0.865800
     35 H1          -0.3610     0.0080     1.0210 hc         1 31Z       0.007367
     36 H2          -0.3610     0.8800    -0.5180 hc         1 31Z       0.007367
     37 H3          -0.3610    -0.8890    -0.5040 hc         1 31Z       0.007367
     38 H4           1.6600    -0.0010     2.1080 h4         1 31Z       0.139000
     39 H5           4.0870    -0.0010    -2.0550 hn         1 31Z       0.203500
     40 H6           3.6090    -0.0020     3.2410 h1         1 31Z       0.051700
     41 H7           4.5620    -2.1350     2.4740 hc         1 31Z       0.034700
     42 H8           5.8580    -1.2660     1.6320 hc         1 31Z       0.034700
     43 H9           6.6640    -2.0700     3.8110 hc         1 31Z       0.020700
     44 H10          5.3320    -1.2300     4.6270 hc         1 31Z       0.020700
     45 H11          7.5110     0.0860     2.9650 h1         1 31Z       0.039700
     46 H12          7.4020     0.1090     4.7340 h1         1 31Z       0.039700
     47 H14          4.5580     2.1310     2.4490 h1         1 31Z       0.030700
     48 H15          5.8710     1.2530     1.6470 h1         1 31Z       0.030700
     49 H16          6.0370     3.3310     3.7490 h1         1 31Z       0.011700
     50 H17          7.5080     2.5210     3.1950 h1         1 31Z       0.011700
     51 H18          5.7040     3.8400     6.0240 ha         1 31Z       0.096000
     52 H19          6.6030     3.9550     8.3110 ha         1 31Z       0.138000
     53 H20          7.8010    -0.0330     7.5770 ha         1 31Z       0.128000
     54 H21          7.5840    -2.3590     8.3620 ha         1 31Z       0.092000
     55 H22          9.5980    -3.6610     8.9340 ha         1 31Z       0.103000
     56 H23         12.0610    -0.3560     7.8170 ha         1 31Z       0.124000
@<TRIPOS>BOND
     1     1     2 1   
     2     1    35 1   
     3     1    36 1   
     4     1    37 1   
     5     2     3 2   
     6     2     8 1   
     7     3     4 1   
     8     3    38 1   
     9     4     5 1   
    10     4    10 1   
    11     5     6 2   
    12     5     7 1   
    13     7     8 1   
    14     7    39 1   
    15     8     9 2   
    16    10    11 1   
    17    10    15 1   
    18    10    40 1   
    19    11    12 1   
    20    11    41 1   
    21    11    42 1   
    22    12    13 1   
    23    12    43 1   
    24    12    44 1   
    25    13    14 1   
    26    13    45 1   
    27    13    46 1   
    28    14    15 1   
    29    14    16 1   
    30    15    47 1   
    31    15    48 1   
    32    16    17 1   
    33    16    49 1   
    34    16    50 1   
    35    17    18 ar  
    36    17    22 ar  
    37    18    19 ar  
    38    18    51 1   
    39    19    20 ar  
    40    19    52 1   
    41    20    21 ar  
    42    20    32 1   
    43    21    22 ar  
    44    21    24 1   
    45    22    23 1   
    46    24    25 1   
    47    25    26 ar  
    48    25    30 ar  
    49    26    27 ar  
    50    26    53 1   
    51    27    28 ar  
    52    27    54 1   
    53    28    29 ar  
    54    28    55 1   
    55    29    30 ar  
    56    29    31 1   
    57    30    56 1   
    58    32    33 1   
    59    32    34 1   
@<TRIPOS>SUBSTRUCTURE
     1 31Z         1 TEMP              0 ****  ****    0 ROOT
