@<TRIPOS>MOLECULE
320
   47    50     1     0     0
SMALL
bcc


@<TRIPOS>ATOM
      1 F31          0.0000     0.0000     0.0000 f          1 320      -0.127900
      2 C28          1.3500     0.0000     0.0000 ca         1 320       0.109900
      3 C29          2.0440     0.0000     1.1980 ca         1 320      -0.128000
      4 C30          3.4260     0.0000     1.1960 ca         1 320      -0.056000
      5 C27          2.0440    -0.0050    -1.1990 ca         1 320      -0.128000
      6 C26          3.4250    -0.0050    -1.1990 ca         1 320      -0.056000
      7 C23          4.1160     0.0010    -0.0020 ca         1 320      -0.092300
      8 C22          5.6240     0.0020    -0.0020 c3         1 320      -0.034100
      9 C21          6.1270    -1.4180    -0.0030 c          1 320       0.553100
     10 O25          5.3390    -2.3400    -0.0020 o          1 320      -0.527100
     11 N20          7.4520    -1.6640    -0.0030 ns         1 320      -0.180500
     12 C19          7.9020    -2.9340    -0.0030 c          1 320       0.547100
     13 O24          7.1120    -3.8590    -0.0030 o          1 320      -0.605100
     14 N18          9.2280    -3.1790    -0.0030 ns         1 320      -0.058100
     15 C14          9.6950    -4.4970     0.0790 ca         1 320      -0.056400
     16 C15          8.9940    -5.5230    -0.5390 ca         1 320      -0.124000
     17 C16          9.4570    -6.8240    -0.4570 ca         1 320       0.117900
     18 F17          8.7750    -7.8240    -1.0580 f          1 320      -0.113900
     19 C13         10.8650    -4.7760     0.7740 ca         1 320      -0.136000
     20 C12         11.3280    -6.0750     0.8560 ca         1 320      -0.073000
     21 C11         10.6240    -7.1020     0.2430 ca         1 320       0.058100
     22 O10         11.0800    -8.3800     0.3250 os         1 320      -0.199200
     23 C6          11.8770    -8.8370    -0.6730 ca         1 320       0.233100
     24 C5          12.1330    -8.0610    -1.7970 ca         1 320      -0.367300
     25 C4          12.9520    -8.5620    -2.7940 ca         1 320       0.462200
     26 N3          13.4960    -9.7580    -2.7060 nb         1 320      -0.617000
     27 C2          13.2880   -10.5460    -1.6570 ca         1 320       0.263800
     28 C1          12.4730   -10.1050    -0.6010 ca         1 320      -0.252100
     29 N9          13.7270   -11.8050    -1.3280 na         1 320       0.260900
     30 C8          13.2170   -12.1760    -0.1120 cc         1 320      -0.280100
     31 C7          12.4570   -11.1870     0.3850 cd         1 320      -0.125200
     32 H29          1.5030    -0.0000     2.1370 ha         1 320       0.119000
     33 H30          3.9680     0.0030     2.1340 ha         1 320       0.106000
     34 H27          1.5020    -0.0100    -2.1380 ha         1 320       0.119000
     35 H26          3.9670    -0.0070    -2.1370 ha         1 320       0.106000
     36 H22          5.9840     0.5130    -0.8860 hc         1 320       0.031200
     37 H22A         5.9840     0.5120     0.8830 hc         1 320       0.031200
     38 HN20         8.1020    -0.9030     0.0030 hn         1 320       0.163500
     39 HN18         9.8760    -2.4240    -0.1090 hn         1 320       0.163500
     40 H15          8.1190    -5.2970    -1.1370 ha         1 320       0.163000
     41 H13         11.4150    -3.9740     1.2530 ha         1 320       0.110000
     42 H12         12.2390    -6.2920     1.4000 ha         1 320       0.121000
     43 H5          11.6960    -7.0740    -1.8910 ha         1 320       0.130000
     44 H4          13.1500    -7.9550    -3.6700 h4         1 320      -0.025900
     45 HN9         14.3240   -12.3720    -1.8970 hn         1 320       0.118700
     46 H8          13.4000   -13.1250     0.3770 h4         1 320       0.142000
     47 H7          11.9250   -11.1930     1.3280 ha         1 320       0.135000
@<TRIPOS>BOND
     1     1     2 1   
     2     2     3 ar  
     3     2     5 ar  
     4     3     4 ar  
     5     3    32 1   
     6     4     7 ar  
     7     4    33 1   
     8     5     6 ar  
     9     5    34 1   
    10     6     7 ar  
    11     6    35 1   
    12     7     8 1   
    13     8     9 1   
    14     8    36 1   
    15     8    37 1   
    16     9    10 2   
    17     9    11 1   
    18    11    12 1   
    19    11    38 1   
    20    12    13 2   
    21    12    14 1   
    22    14    15 1   
    23    14    39 1   
    24    15    16 ar  
    25    15    19 ar  
    26    16    17 ar  
    27    16    40 1   
    28    17    18 1   
    29    17    21 ar  
    30    19    20 ar  
    31    19    41 1   
    32    20    21 ar  
    33    20    42 1   
    34    21    22 1   
    35    22    23 1   
    36    23    24 ar  
    37    23    28 ar  
    38    24    25 ar  
    39    24    43 1   
    40    25    26 ar  
    41    25    44 1   
    42    26    27 ar  
    43    27    28 ar  
    44    27    29 1   
    45    28    31 1   
    46    29    30 1   
    47    29    45 1   
    48    30    31 2   
    49    30    46 1   
    50    31    47 1   
@<TRIPOS>SUBSTRUCTURE
     1 320         1 TEMP              0 ****  ****    0 ROOT
