@<TRIPOS>MOLECULE
molecule
   47    50     1     0     0
SMALL
bcc


@<TRIPOS>ATOM
      1 F31          0.0000     0.0000     0.0000 f          1 320      -0.138900
      2 C28          1.3500     0.0000     0.0000 ca         1 320       0.141900
      3 C29          2.0440     0.0000     1.1980 ca         1 320      -0.164000
      4 C30          3.4260     0.0000     1.1960 ca         1 320      -0.082000
      5 C27          2.0440    -0.0050    -1.1990 ca         1 320      -0.164000
      6 C26          3.4250    -0.0050    -1.1990 ca         1 320      -0.082000
      7 C23          4.1160     0.0010    -0.0020 ca         1 320      -0.092300
      8 C22          5.6240     0.0020    -0.0020 c3         1 320      -0.105100
      9 C21          6.1270    -1.4180    -0.0030 c          1 320       0.651100
     10 O25          5.3390    -2.3400    -0.0020 o          1 320      -0.498100
     11 N20          7.4520    -1.6640    -0.0030 ns         1 320      -0.594500
     12 C19          7.9020    -2.9340    -0.0030 c          1 320       0.769100
     13 O24          7.1120    -3.8590    -0.0030 o          1 320      -0.565100
     14 N18          9.2280    -3.1790    -0.0030 ns         1 320      -0.494100
     15 C14          9.6950    -4.4970     0.0790 ca         1 320       0.094600
     16 C15          8.9940    -5.5230    -0.5390 ca         1 320      -0.161000
     17 C16          9.4570    -6.8240    -0.4570 ca         1 320       0.147900
     18 F17          8.7750    -7.8240    -1.0580 f          1 320      -0.117900
     19 C13         10.8650    -4.7760     0.7740 ca         1 320      -0.172000
     20 C12         11.3280    -6.0750     0.8560 ca         1 320      -0.092000
     21 C11         10.6240    -7.1020     0.2430 ca         1 320       0.041100
     22 O10         11.0800    -8.3800     0.3250 os         1 320      -0.225200
     23 C6          11.8770    -8.8370    -0.6730 ca         1 320       0.216100
     24 C5          12.1330    -8.0610    -1.7970 ca         1 320      -0.375300
     25 C4          12.9520    -8.5620    -2.7940 ca         1 320       0.483200
     26 N3          13.4960    -9.7580    -2.7060 nb         1 320      -0.741000
     27 C2          13.2880   -10.5460    -1.6570 ca         1 320       0.495800
     28 C1          12.4730   -10.1050    -0.6010 ca         1 320      -0.243100
     29 N9          13.7270   -11.8050    -1.3280 na         1 320      -0.279100
     30 C8          13.2170   -12.1760    -0.1120 cc         1 320      -0.110100
     31 C7          12.4570   -11.1870     0.3850 cd         1 320      -0.167200
     32 H29          1.5030    -0.0000     2.1370 ha         1 320       0.147000
     33 H30          3.9680     0.0030     2.1340 ha         1 320       0.135500
     34 H27          1.5020    -0.0100    -2.1380 ha         1 320       0.147000
     35 H26          3.9670    -0.0070    -2.1370 ha         1 320       0.135500
     36 H22          5.9840     0.5130    -0.8860 hc         1 320       0.068200
     37 H22A         5.9840     0.5120     0.8830 hc         1 320       0.068200
     38 HN20         8.1020    -0.9030     0.0030 hn         1 320       0.313500
     39 HN18         9.8760    -2.4240    -0.1090 hn         1 320       0.320500
     40 H15          8.1190    -5.2970    -1.1370 ha         1 320       0.187000
     41 H13         11.4150    -3.9740     1.2530 ha         1 320       0.139000
     42 H12         12.2390    -6.2920     1.4000 ha         1 320       0.155000
     43 H5          11.6960    -7.0740    -1.8910 ha         1 320       0.145000
     44 H4          13.1500    -7.9550    -3.6700 h4         1 320       0.024100
     45 HN9         14.3240   -12.3720    -1.8970 hn         1 320       0.305700
     46 H8          13.4000   -13.1250     0.3770 h4         1 320       0.170000
     47 H7          11.9250   -11.1930     1.3280 ha         1 320       0.163000
@<TRIPOS>BOND
     1     1     2 1   
     2     2     3 ar  
     3     2     5 ar  
     4     3     4 ar  
     5     4     7 ar  
     6     5     6 ar  
     7     6     7 ar  
     8     7     8 1   
     9     8     9 1   
    10     9    10 2   
    11     9    11 1   
    12    11    12 1   
    13    12    13 2   
    14    12    14 1   
    15    14    15 1   
    16    15    16 ar  
    17    15    19 ar  
    18    16    17 ar  
    19    17    18 1   
    20    17    21 ar  
    21    19    20 ar  
    22    20    21 ar  
    23    21    22 1   
    24    22    23 1   
    25    23    24 ar  
    26    23    28 ar  
    27    24    25 ar  
    28    25    26 ar  
    29    26    27 ar  
    30    27    28 ar  
    31    27    29 1   
    32    28    31 1   
    33    29    30 1   
    34    30    31 2   
    35     3    32 1   
    36     4    33 1   
    37     5    34 1   
    38     6    35 1   
    39     8    36 1   
    40     8    37 1   
    41    11    38 1   
    42    14    39 1   
    43    16    40 1   
    44    19    41 1   
    45    20    42 1   
    46    24    43 1   
    47    25    44 1   
    48    29    45 1   
    49    30    46 1   
    50    31    47 1   
@<TRIPOS>SUBSTRUCTURE
     1 320         1 TEMP              0 ****  ****    0 ROOT
