@<TRIPOS>MOLECULE
molecule
   59    62     1     0     0
SMALL
bcc


@<TRIPOS>ATOM
      1 O31          0.0000     0.0000     0.0000 o          1 321      -0.625300
      2 S35          1.4210     0.0000     0.0000 s6         1 321       1.323900
      3 O30          2.1540     0.0000     1.2180 o          1 321      -0.625300
      4 C19          2.0580    -1.2720    -1.1260 c3         1 321      -0.242300
      5 N26          1.8300     1.4330    -0.7220 nu         1 321      -0.769500
      6 C8           1.2650     1.7820    -1.9510 ca         1 321       0.117600
      7 C3          -0.0980     1.6140    -2.1650 ca         1 321      -0.117000
      8 C5           2.0660     2.3030    -2.9630 ca         1 321      -0.032000
      9 C9           1.5070     2.6420    -4.1710 ca         1 321      -0.300500
     10 S34          2.5070     3.3110    -5.4660 sy         1 321       1.191300
     11 O28          3.7520     2.6380    -5.3420 o          1 321      -0.601800
     12 O29          2.4080     4.7190    -5.3050 o          1 321      -0.601800
     13 C11          1.6210     2.7660    -6.9610 c3         1 321      -0.292900
     14 C14          0.1440     2.9580    -6.7280 ce         1 321       0.580600
     15 N24         -0.4300     2.7920    -5.5920 nf         1 321      -0.586100
     16 C7           0.1380     2.4700    -4.4030 ca         1 321       0.219400
     17 C2          -0.6610     1.9530    -3.3740 ca         1 321      -0.082000
     18 C13         -0.6870     3.3600    -7.8680 cc         1 321      -0.247800
     19 C15         -0.8160     4.7070    -8.2140 cd         1 321       0.069500
     20 O32         -0.1750     5.6620    -7.5020 oh         1 321      -0.490100
     21 C16         -1.3710     2.3870    -8.6430 c          1 321       0.682700
     22 O27         -1.2730     1.2030    -8.3670 o          1 321      -0.634500
     23 N25         -2.1280     2.7790    -9.6860 n          1 321      -0.191800
     24 C21         -2.8340     1.7760   -10.4860 c3         1 321       0.122000
     25 C20         -4.2240     1.5350    -9.8930 c3         1 321      -0.098400
     26 C22         -4.9610     0.4870   -10.7280 c3         1 321      -0.075700
     27 C18         -4.2360    -0.8560   -10.6180 c3         1 321      -0.089600
     28 C17         -6.3930     0.3370   -10.2110 c3         1 321      -0.089600
     29 N23         -2.2500     4.1330   -10.0130 nc         1 321      -0.403300
     30 C12         -1.6270     5.0610    -9.3210 cd         1 321       0.426200
     31 C10         -1.7740     6.4810    -9.6990 cd         1 321      -0.101000
     32 C4          -1.8610     6.9460   -10.9620 cc         1 321      -0.112000
     33 S33         -1.8690     7.8290    -8.5720 ss         1 321      -0.079800
     34 C6          -2.0190     8.9710    -9.9010 cd         1 321      -0.071100
     35 C1          -1.9940     8.3150   -11.0660 cc         1 321      -0.167000
     36 H19          2.1820    -2.2030    -0.5870 h1         1 321       0.102367
     37 H19A         1.3590    -1.4160    -1.9410 h1         1 321       0.102367
     38 H19B         3.0150    -0.9550    -1.5240 h1         1 321       0.102367
     39 HN26         2.4550     2.0650    -0.2620 hn         1 321       0.470800
     40 H3          -0.7240     1.2270    -1.3700 ha         1 321       0.193000
     41 H5           3.1110     2.5140    -2.7720 ha         1 321       0.152000
     42 H11          1.9370     3.3610    -7.8090 h1         1 321       0.123700
     43 H11A         1.8270     1.7190    -7.1450 h1         1 321       0.123700
     44 H2          -1.7240     1.8180    -3.5320 ha         1 321       0.161000
     45 HO32         0.5440     6.0010    -8.0070 ho         1 321       0.440000
     46 H21         -2.2730     0.8490   -10.4790 h1         1 321       0.075200
     47 H21A        -2.9320     2.1300   -11.5050 h1         1 321       0.075200
     48 H20         -4.1250     1.1800    -8.8740 hc         1 321       0.058700
     49 H20A        -4.7840     2.4620    -9.9000 hc         1 321       0.058700
     50 H22         -4.9830     0.8010   -11.7650 hc         1 321       0.047700
     51 H18         -4.8990    -1.6520   -10.9340 hc         1 321       0.037033
     52 H18A        -3.9380    -1.0220    -9.5890 hc         1 321       0.037033
     53 H18B        -3.3570    -0.8450   -11.2510 hc         1 321       0.037033
     54 H17         -6.9260    -0.3780   -10.8260 hc         1 321       0.037033
     55 H17A        -6.8950     1.2960   -10.2560 hc         1 321       0.037033
     56 H17B        -6.3720    -0.0120    -9.1860 hc         1 321       0.037033
     57 H4          -1.8280     6.2950   -11.8280 ha         1 321       0.158000
     58 H6          -2.1180    10.0440    -9.7920 h4         1 321       0.176000
     59 H1          -2.0740     8.8220   -12.0200 ha         1 321       0.153000
@<TRIPOS>BOND
     1     1     2 2   
     2     2     3 2   
     3     2     4 1   
     4     2     5 1   
     5     5     6 1   
     6     6     7 ar  
     7     6     8 ar  
     8     7    17 ar  
     9     8     9 ar  
    10     9    10 1   
    11     9    16 ar  
    12    10    11 2   
    13    10    12 2   
    14    10    13 1   
    15    13    14 1   
    16    14    15 2   
    17    14    18 1   
    18    15    16 1   
    19    16    17 ar  
    20    18    19 2   
    21    18    21 1   
    22    19    20 1   
    23    19    30 1   
    24    21    22 2   
    25    21    23 1   
    26    23    24 1   
    27    23    29 1   
    28    24    25 1   
    29    25    26 1   
    30    26    27 1   
    31    26    28 1   
    32    29    30 2   
    33    30    31 1   
    34    31    32 2   
    35    31    33 1   
    36    32    35 1   
    37    33    34 1   
    38    34    35 2   
    39     4    36 1   
    40     4    37 1   
    41     4    38 1   
    42     5    39 1   
    43     7    40 1   
    44     8    41 1   
    45    13    42 1   
    46    13    43 1   
    47    17    44 1   
    48    20    45 1   
    49    24    46 1   
    50    24    47 1   
    51    25    48 1   
    52    25    49 1   
    53    26    50 1   
    54    27    51 1   
    55    27    52 1   
    56    27    53 1   
    57    28    54 1   
    58    28    55 1   
    59    28    56 1   
    60    32    57 1   
    61    34    58 1   
    62    35    59 1   
@<TRIPOS>SUBSTRUCTURE
     1 321         1 TEMP              0 ****  ****    0 ROOT
