@<TRIPOS>MOLECULE
322
   36    37     1     0     0
SMALL
bcc


@<TRIPOS>ATOM
      1 C10          0.0000     0.0000     0.0000 c          1 322       0.985600
      2 C8           2.2130    -1.1630     1.9980 cs         1 322       0.362000
      3 C9           1.5070     0.0000     0.0000 c3         1 322      -0.148000
      4 C4           1.9810     0.5620     6.6500 ca         1 322      -0.168000
      5 C5           2.3150     1.5910     5.7890 ca         1 322      -0.038300
      6 C6           1.7280     1.6310     4.4010 c3         1 322       0.045900
      7 C3           2.5150     0.5270     7.9280 ca         1 322       0.138100
      8 C2           1.2870    -1.4790     8.2820 c3         1 322       0.193400
      9 C1           1.0390    -2.5270     9.3680 c3         1 322       0.002900
     10 C7           2.7140     1.0060     3.4120 c3         1 322      -0.043600
     11 N1           1.9960     0.0000     1.3800 n          1 322       0.112600
     12 S1           2.7920    -0.8040     3.6350 ss         1 322      -0.293700
     13 O1           2.1880    -0.4860     8.7760 os         1 322      -0.293900
     14 C11          2.2120     1.1520     1.9920 c          1 322       0.595500
     15 C12          3.1860     2.5840     6.1980 ca         1 322       0.015100
     16 C13          3.7280     2.5510     7.4720 ca         1 322       0.027100
     17 C14          3.3870     1.5290     8.3430 ca         1 322       0.101100
     18 O2          -0.6040     0.0050     1.0470 o          1 322      -0.875800
     19 O3          -0.6710    -0.0000    -1.1630 o          1 322      -0.875800
     20 O4           2.0250     2.2280     1.4640 o          1 322      -0.583500
     21 O5           3.9130     1.4980     9.5960 oh         1 322      -0.475100
     22 H9           1.8690    -0.8850    -0.5110 h1         1 322       0.062700
     23 H9A          1.8690     0.8840    -0.5110 h1         1 322       0.062700
     24 H4           1.2750    -0.1980     6.3370 ha         1 322       0.150000
     25 H6           0.7990     1.0740     4.3860 hc         1 322       0.056700
     26 H6A          1.5370     2.6590     4.1190 hc         1 322       0.056700
     27 H2           1.6490    -1.9670     7.3850 h1         1 322       0.009200
     28 H2A          0.3620    -0.9610     8.0630 h1         1 322       0.009200
     29 H1           0.6070    -2.0500    10.2390 hc         1 322       0.009700
     30 H1A          1.9780    -2.9940     9.6410 hc         1 322       0.009700
     31 H1B          0.3570    -3.2810     8.9930 hc         1 322       0.009700
     32 H7           3.6990     1.4440     3.5140 h1         1 322       0.089700
     33 HO5          3.4930     2.1520    10.1300 ho         1 322       0.400000
     34 Br1          3.6390     3.9880     5.0160 br         1 322      -0.090100
     35 Br2          4.9190     3.9110     8.0280 br         1 322      -0.100100
     36 S2           1.9710    -2.7220     1.3320 s          1 322      -0.516400
@<TRIPOS>BOND
     1     1     3 1   
     2     1    18 1   
     3     1    19 1   
     4     2    11 1   
     5     2    12 1   
     6     2    36 2   
     7     3    11 1   
     8     3    22 1   
     9     3    23 1   
    10     4     5 ar  
    11     4     7 ar  
    12     4    24 1   
    13     5     6 1   
    14     5    15 ar  
    15     6    10 1   
    16     6    25 1   
    17     6    26 1   
    18     7    13 1   
    19     7    17 ar  
    20     8     9 1   
    21     8    13 1   
    22     8    27 1   
    23     8    28 1   
    24     9    29 1   
    25     9    30 1   
    26     9    31 1   
    27    10    12 1   
    28    10    14 1   
    29    10    32 1   
    30    11    14 1   
    31    14    20 2   
    32    15    16 ar  
    33    15    34 1   
    34    16    17 ar  
    35    16    35 1   
    36    17    21 1   
    37    21    33 1   
@<TRIPOS>SUBSTRUCTURE
     1 322         1 TEMP              0 ****  ****    0 ROOT
