@<TRIPOS>MOLECULE
323
   53    56     1     0     0
SMALL
bcc


@<TRIPOS>ATOM
      1 C1          0.2840    0.9360    0.7550 cc        1 323      0.293000
      2 O1          1.7800   -0.7950    2.4820 os        1 323     -0.368800
      3 N1          5.7130   -0.3250   -0.1670 nh        1 323     -0.276600
      4 C10         2.3600    1.1700   -0.6180 cd        1 323      0.044800
      5 C11         3.6760    0.8560   -0.8310 cc        1 323     -0.318600
      6 C12         4.3930   -0.0170    0.0560 cc        1 323      0.436900
      7 C13         3.6980   -0.5430    1.1800 cc        1 323     -0.366600
      8 C14        -3.4750   -1.6860    5.3720 c3        1 323      0.194100
      9 C15        -1.2730   -2.6700    5.9370 c3        1 323      0.194100
     10 C16         6.3640    0.1120   -1.3740 c3        1 323      0.016600
     11 C17         6.4010   -1.2430    0.7010 c3        1 323      0.016600
     12 C18        -0.4840    1.8870   -0.0470 ca        1 323     -0.115000
     13 C19        -0.9930    3.0410    0.5840 ca        1 323     -0.132000
     14 O2          0.7410    0.5940   -2.9280 o         1 323     -0.792300
     15 N2         -2.0560   -1.7560    5.1510 nh        1 323     -0.658500
     16 C2          1.6400    0.6580    0.5030 cd        1 323     -0.278100
     17 C20        -1.7300    3.9630   -0.1410 ca        1 323     -0.122000
     18 C21        -1.9880    3.7420   -1.5060 ca        1 323     -0.177600
     19 C22        -1.4920    2.5970   -2.1260 ca        1 323     -0.050000
     20 C23        -0.7350    1.6610   -1.4050 ca        1 323     -0.085600
     21 C24        -0.2100    0.4110   -2.1220 c         1 323      0.902200
     22 C25        -2.7790    4.7320   -2.2550 c         1 323      0.571500
     23 O3         -0.7420   -0.6870   -1.8270 o         1 323     -0.792300
     24 C3          2.3600   -0.2150    1.3700 cd        1 323      0.378200
     25 O4         -3.0810    4.6200   -3.4440 o         1 323     -0.516100
     26 C4          0.4340   -0.5720    2.6910 ca        1 323      0.443500
     27 C5         -0.3270    0.2930    1.8650 ca        1 323     -0.266300
     28 C6         -0.1110   -1.2560    3.7790 ca        1 323     -0.345300
     29 C7         -1.4880   -1.1090    4.0750 ca        1 323      0.290600
     30 C8         -2.2720   -0.2530    3.2280 ca        1 323     -0.232000
     31 C9         -1.7080    0.4130    2.1710 ca        1 323      0.033000
     32 H10         1.8150    1.7910   -1.3610 ha        1 323      0.190000
     33 H11         4.1710    1.2590   -1.7290 ha        1 323      0.156500
     34 H13         4.1810   -1.2250    1.8940 ha        1 323      0.162000
     35 H114       -4.0390   -2.0710    4.4790 h1        1 323      0.052617
     36 H214       -3.7580   -2.3010    6.2660 h1        1 323      0.052617
     37 H314       -3.7790   -0.6200    5.5610 h1        1 323      0.052617
     38 H115       -0.4020   -2.1280    6.3970 h1        1 323      0.052617
     39 H215       -1.8970   -3.1060    6.7600 h1        1 323      0.052617
     40 H315       -0.8800   -3.5090    5.3000 h1        1 323      0.052617
     41 H116        7.4100   -0.2910   -1.4170 h1        1 323      0.052617
     42 H216        6.4120    1.2350   -1.3970 h1        1 323      0.052617
     43 H316        5.8020   -0.2460   -2.2800 h1        1 323      0.052617
     44 H117        5.9050   -2.2520    0.6840 h1        1 323      0.052617
     45 H217        7.4670   -1.3600    0.3730 h1        1 323      0.052617
     46 H317        6.3910   -0.8520    1.7540 h1        1 323      0.052617
     47 H19        -0.7920    3.2140    1.6510 ha        1 323      0.128000
     48 H20        -2.1140    4.8690    0.3500 ha        1 323      0.131000
     49 H22        -1.6850    2.4190   -3.1990 ha        1 323      0.178000
     50 H25        -3.1000    5.6200   -1.6620 h4        1 323     -0.009800
     51 H6          0.5480   -1.9080    4.3700 ha        1 323      0.162000
     52 H8         -3.3510   -0.1340    3.4160 ha        1 323      0.156500
     53 H9         -2.3330    1.0510    1.5190 ha        1 323      0.190000
@<TRIPOS>BOND
     1    1   12 1
     2    1   16 2
     3    1   27 1
     4    2   24 1
     5    2   26 1
     6    3    6 2
     7    3   10 1
     8    3   11 1
     9    4    5 2
    10    4   16 1
    11    4   32 1
    12    5    6 1
    13    5   33 1
    14    6    7 1
    15    7   24 2
    16    7   34 1
    17    8   15 1
    18    8   35 1
    19    8   36 1
    20    8   37 1
    21    9   15 1
    22    9   38 1
    23    9   39 1
    24    9   40 1
    25   10   41 1
    26   10   42 1
    27   10   43 1
    28   11   44 1
    29   11   45 1
    30   11   46 1
    31   12   13 ar
    32   12   20 ar
    33   13   17 ar
    34   13   47 1
    35   14   21 1
    36   15   29 1
    37   16   24 1
    38   17   18 ar
    39   17   48 1
    40   18   19 ar
    41   18   22 1
    42   19   20 ar
    43   19   49 1
    44   20   21 1
    45   21   23 1
    46   22   25 2
    47   22   50 1
    48   26   27 ar
    49   26   28 ar
    50   27   31 ar
    51   28   29 ar
    52   28   51 1
    53   29   30 ar
    54   30   31 ar
    55   30   52 1
    56   31   53 1
@<TRIPOS>SUBSTRUCTURE
     1 323         1 TEMP              0 ****  ****    0 ROOT
