@<TRIPOS>MOLECULE
324
   41    43     1     0     0
SMALL
bcc


@<TRIPOS>ATOM
      1 O24          0.0000     0.0000     0.0000 o          1 324      -0.578300
      2 S22          1.4210     0.0000     0.0000 s6         1 324       0.953900
      3 O23          2.1540     0.0000     1.2170 o          1 324      -0.578300
      4 C25          2.0570    -1.2740    -1.1260 c3         1 324      -0.010600
      5 C26          1.7380    -2.6590    -0.5610 c3         1 324       0.005600
      6 C27          2.2740    -3.7330    -1.5090 c3         1 324       0.008900
      7 N21          1.8290     1.4320    -0.7240 nu         1 324      -0.399500
      8 C17          1.3460     1.7330    -2.0040 ca         1 324       0.025600
      9 C18          2.1450     2.4310    -2.9000 ca         1 324       0.113900
     10 F20          3.3870     2.8190    -2.5400 f          1 324      -0.115900
     11 C16          0.0710     1.3280    -2.3760 ca         1 324      -0.126000
     12 C15         -0.4120     1.6200    -3.6380 ca         1 324      -0.115000
     13 C14          0.3690     2.3190    -4.5380 ca         1 324       0.136900
     14 F19         -0.1080     2.6030    -5.7700 f          1 324      -0.116900
     15 C13          1.6570     2.7270    -4.1760 ca         1 324      -0.197600
     16 C11          2.4990     3.4690    -5.1360 c          1 324       0.691900
     17 O12          3.1670     2.8630    -5.9540 o          1 324      -0.545100
     18 C9           2.5280     4.9360    -5.1060 cc         1 324      -0.240400
     19 C8           1.7690     5.7540    -4.3200 cd         1 324      -0.207100
     20 C2           3.3890     5.8190    -5.9130 ca         1 324      -0.154100
     21 C1           4.3680     5.6040    -6.8820 ca         1 324      -0.008000
     22 C3           3.0600     7.1330    -5.5370 ca         1 324       0.209800
     23 N7           2.0790     7.0500    -4.5730 na         1 324       0.293900
     24 N4           3.6840     8.1560    -6.1060 nb         1 324      -0.561000
     25 C5           4.6120     7.9790    -7.0220 ca         1 324       0.418200
     26 C6           4.9850     6.7120    -7.4400 ca         1 324      -0.181900
     27 Cl10         6.2120     6.5120    -8.6510 cl         1 324      -0.006400
     28 H25          1.5890    -1.1630    -2.0970 h1         1 324       0.072700
     29 H25A         3.1300    -1.1630    -1.2270 h1         1 324       0.072700
     30 H26          0.6650    -2.7700    -0.4590 hc         1 324       0.026700
     31 H26A         2.2050    -2.7700     0.4100 hc         1 324       0.026700
     32 H27          3.3470    -3.6220    -1.6110 hc         1 324       0.005700
     33 H27A         2.0480    -4.7140    -1.1090 hc         1 324       0.005700
     34 H27B         1.8060    -3.6220    -2.4810 hc         1 324       0.005700
     35 HN21         2.4260     2.0810    -0.2490 hn         1 324       0.358800
     36 H16         -0.5470     0.7800    -1.6750 ha         1 324       0.184000
     37 H15         -1.4080     1.3010    -3.9220 ha         1 324       0.128000
     38 H8           1.0300     5.4190    -3.6020 h4         1 324       0.147000
     39 H1           4.6380     4.6010    -7.1890 ha         1 324       0.140000
     40 H5           5.0950     8.8440    -7.4590 h4         1 324      -0.010900
     41 H14          1.6560     7.8360    -4.1220 hn         1 324       0.120700
@<TRIPOS>BOND
     1     1     2 2   
     2     2     3 2   
     3     2     4 1   
     4     2     7 1   
     5     4     5 1   
     6     4    28 1   
     7     4    29 1   
     8     5     6 1   
     9     5    30 1   
    10     5    31 1   
    11     6    32 1   
    12     6    33 1   
    13     6    34 1   
    14     7     8 1   
    15     7    35 1   
    16     8     9 ar  
    17     8    11 ar  
    18     9    10 1   
    19     9    15 ar  
    20    11    12 ar  
    21    11    36 1   
    22    12    13 ar  
    23    12    37 1   
    24    13    14 1   
    25    13    15 ar  
    26    15    16 1   
    27    16    17 2   
    28    16    18 1   
    29    18    19 2   
    30    18    20 1   
    31    19    23 1   
    32    19    38 1   
    33    20    21 ar  
    34    20    22 ar  
    35    21    26 ar  
    36    21    39 1   
    37    22    23 1   
    38    22    24 ar  
    39    23    41 1   
    40    24    25 ar  
    41    25    26 ar  
    42    25    40 1   
    43    26    27 1   
@<TRIPOS>SUBSTRUCTURE
     1 324         1 TEMP              0 ****  ****    0 ROOT
