@<TRIPOS>MOLECULE
325
   47    50     1     0     0
SMALL
bcc


@<TRIPOS>ATOM
      1 O30          0.0000     0.0000     0.0000 o          1 325      -0.542100
      2 C16          1.2170     0.0000     0.0000 c          1 325       0.690900
      3 C17          1.9540     0.0000     1.2790 ca         1 325      -0.197600
      4 C22          2.3960     1.2040     1.8350 ca         1 325       0.116900
      5 F28          2.1490     2.3730     1.2050 f          1 325      -0.115900
      6 C21          3.0890     1.1940     3.0390 ca         1 325       0.023600
      7 N23          3.5330     2.3970     3.6010 nu         1 325      -0.399500
      8 S24          4.9720     2.4480     4.4170 s6         1 325       0.956900
      9 C26          6.2080     1.9420     3.1880 c3         1 325      -0.010600
     10 C31          7.5970     1.9500     3.8280 c3         1 325       0.040900
     11 O27          5.1360     3.8180     4.7530 o          1 325      -0.577300
     12 O25          4.8380     1.4570     5.4260 o          1 325      -0.577300
     13 C20          3.3400    -0.0090     3.6860 ca         1 325      -0.125000
     14 C19          2.9050    -1.2020     3.1370 ca         1 325      -0.116000
     15 C18          2.2100    -1.2050     1.9430 ca         1 325       0.137900
     16 F29          1.7820    -2.3730     1.4140 f          1 325      -0.116900
     17 C13          1.9510    -0.0060    -1.2710 cc         1 325      -0.237400
     18 C11          1.3760     0.0920    -2.6250 ca         1 325      -0.156100
     19 C12          0.0830     0.2100    -3.1230 ca         1 325      -0.007000
     20 C10          2.4650     0.0440    -3.5140 ca         1 325       0.210800
     21 N15          3.6070    -0.0730    -2.7550 na         1 325       0.293900
     22 C14          3.3040    -0.0970    -1.4340 cd         1 325      -0.213100
     23 N9           2.2550     0.1120    -4.8220 nb         1 325      -0.568000
     24 C8           1.0460     0.2250    -5.3270 ca         1 325       0.416200
     25 C7          -0.0820     0.2780    -4.5060 cp         1 325      -0.167300
     26 C6          -1.4380     0.4050    -5.0970 cp         1 325      -0.140300
     27 C5          -2.5630     0.4570    -4.2800 ca         1 325       0.405200
     28 N4          -3.7670     0.5700    -4.8030 nb         1 325      -0.575000
     29 C3          -3.9560     0.6360    -6.1070 ca         1 325       0.401200
     30 C2          -2.8890     0.5900    -6.9850 ca         1 325      -0.217300
     31 C1          -1.6030     0.4790    -6.4830 ca         1 325      -0.072000
     32 HN23         2.9640     3.2180     3.5370 hn         1 325       0.361800
     33 H26          5.9790     0.9440     2.8350 h1         1 325       0.066700
     34 H26A         6.1910     2.6330     2.3540 h1         1 325       0.066700
     35 H31          8.3300     1.6120     3.1050 hc         1 325       0.014700
     36 H31A         7.8420     2.9550     4.1480 hc         1 325       0.014700
     37 H31B         7.6030     1.2870     4.6850 hc         1 325       0.014700
     38 H20          3.8820    -0.0130     4.6230 ha         1 325       0.183000
     39 H19          3.1030    -2.1350     3.6490 ha         1 325       0.128000
     40 H12         -0.7710     0.2490    -2.4570 ha         1 325       0.139000
     41 H14          4.0250    -0.1760    -0.6300 h4         1 325       0.143000
     42 H8           0.9230     0.2770    -6.4020 h4         1 325      -0.012900
     43 H5          -2.4490     0.4060    -3.2040 h4         1 325      -0.006900
     44 H3          -4.9630     0.7260    -6.4960 h4         1 325      -0.020900
     45 H2          -3.0560     0.6480    -8.0540 ha         1 325       0.112000
     46 H1          -0.7480     0.4400    -7.1470 ha         1 325       0.115000
     47 H16          4.5350    -0.1260    -3.1270 hn         1 325       0.118700
@<TRIPOS>BOND
     1     1     2 2   
     2     2     3 1   
     3     2    17 1   
     4     3     4 ar  
     5     3    15 ar  
     6     4     5 1   
     7     4     6 ar  
     8     6     7 1   
     9     6    13 ar  
    10     7     8 1   
    11     7    32 1   
    12     8     9 1   
    13     8    11 2   
    14     8    12 2   
    15     9    10 1   
    16     9    33 1   
    17     9    34 1   
    18    10    35 1   
    19    10    36 1   
    20    10    37 1   
    21    13    14 ar  
    22    13    38 1   
    23    14    15 ar  
    24    14    39 1   
    25    15    16 1   
    26    17    18 1   
    27    17    22 2   
    28    18    19 ar  
    29    18    20 ar  
    30    19    25 ar  
    31    19    40 1   
    32    20    21 1   
    33    20    23 ar  
    34    21    22 1   
    35    21    47 1   
    36    22    41 1   
    37    23    24 ar  
    38    24    25 ar  
    39    24    42 1   
    40    25    26 1   
    41    26    27 ar  
    42    26    31 ar  
    43    27    28 ar  
    44    27    43 1   
    45    28    29 ar  
    46    29    30 ar  
    47    29    44 1   
    48    30    31 ar  
    49    30    45 1   
    50    31    46 1   
@<TRIPOS>SUBSTRUCTURE
     1 325         1 TEMP              0 ****  ****    0 ROOT
