@<TRIPOS>MOLECULE
molecule
   46    48     1     0     0
SMALL
bcc


@<TRIPOS>ATOM
      1 C1           0.0000     0.0000     0.0000 ca         1 326      -0.039000
      2 C2           1.3810     0.0000     0.0000 ca         1 326      -0.272500
      3 C3           2.0740     0.0000     1.1960 ca         1 326      -0.036000
      4 C4           1.3880    -0.0000     2.3940 ca         1 326      -0.161000
      5 C5           0.0000     0.0040     2.3970 ca         1 326       0.039800
      6 C6          -0.6930    -0.0010     1.1950 ca         1 326      -0.119300
      7 S7           2.2610     0.0010    -1.5260 s6         1 326       1.336100
      8 O8           1.3600    -0.5250    -2.4910 o          1 326      -0.720867
      9 O9           3.5480    -0.5260    -1.2310 o          1 326      -0.720867
     10 O10          2.4870     1.4530    -1.9210 o          1 326      -0.720867
     11 N11         -0.6990     0.0040     3.6120 na         1 326       0.120300
     12 N12         -1.8610     0.7330     3.8860 nc         1 326      -0.544800
     13 C13         -2.2390     0.4950     5.1110 cd         1 326       0.368600
     14 C14         -1.3200    -0.4150     5.6870 cd         1 326      -0.080900
     15 C15         -0.3680    -0.7050     4.7130 cc         1 326       0.117800
     16 C17         -2.2000    -0.0020     1.1940 c3         1 326      -0.035800
     17 O17          0.6920    -1.5340     4.8470 oh         1 326      -0.424100
     18 N19         -0.4550    -1.7390     7.3470 ne         1 326      -0.130400
     19 N20         -1.3620    -0.9130     6.9500 nf         1 326      -0.264400
     20 C21         -3.4450     1.0850     5.7940 c3         1 326      -0.100400
     21 O22          2.5240    -4.4160     8.5740 o          1 326      -0.836300
     22 C24          0.4900    -3.1460     9.0540 ca         1 326      -0.023600
     23 C25         -0.4960    -2.2380     8.6160 ca         1 326       0.058400
     24 O26          1.6200    -3.1200     7.0140 o          1 326      -0.836300
     25 C27          0.4370    -3.6450    10.3560 ca         1 326      -0.158000
     26 C28         -0.5830    -3.2580    11.2020 ca         1 326      -0.044000
     27 C29         -1.5560    -2.3710    10.7690 ca         1 326      -0.306500
     28 C30         -1.5180    -1.8630     9.4880 ca         1 326      -0.036000
     29 S31         -2.8490    -1.8910    11.8640 s6         1 326       1.345100
     30 O32         -3.3310    -0.6490    11.3710 o          1 326      -0.732867
     31 O33         -2.3490    -2.1170    13.1760 o          1 326      -0.732867
     32 O34         -3.9910    -2.8790    11.6820 o          1 326      -0.732867
     33 H1          -0.5410    -0.0020    -0.9390 ha         1 326       0.144000
     34 H3           3.1580    -0.0020     1.1930 ha         1 326       0.151000
     35 H4           1.9330     0.0020     3.3310 ha         1 326       0.153000
     36 H171        -2.5610    -0.1530     0.1840 hc         1 326       0.037033
     37 H172        -2.5610    -0.8020     1.8300 hc         1 326       0.037033
     38 H173        -2.5620     0.9480     1.5680 hc         1 326       0.037033
     39 H17          0.4930    -2.3660     4.4510 ho         1 326       0.435000
     40 H211        -3.1440     1.5410     6.7290 hc         1 326       0.044700
     41 H212        -3.8910     1.8360     5.1530 hc         1 326       0.044700
     42 H213        -4.1680     0.3020     5.9900 hc         1 326       0.044700
     43 H27          1.1940    -4.3380    10.7020 ha         1 326       0.141000
     44 H28         -0.6220    -3.6490    12.2110 ha         1 326       0.125000
     45 H30         -2.2830    -1.1700     9.1580 ha         1 326       0.157000
     46 C23          1.5770    -3.5570     8.1460 c          1 326       0.874200
@<TRIPOS>BOND
     1     1     2 ar  
     2     1     6 ar  
     3     1    33 1   
     4     2     3 ar  
     5     2     7 1   
     6     3     4 ar  
     7     3    34 1   
     8     4     5 ar  
     9     4    35 1   
    10     5     6 ar  
    11     5    11 1   
    12     6    16 1   
    13     7     8 1   
    14     7     9 1   
    15     7    10 1   
    16    11    12 1   
    17    11    15 1   
    18    12    13 2   
    19    13    14 1   
    20    13    20 1   
    21    14    15 2   
    22    14    19 1   
    23    15    17 1   
    24    16    36 1   
    25    16    37 1   
    26    16    38 1   
    27    17    39 1   
    28    18    19 2   
    29    18    23 1   
    30    20    40 1   
    31    20    41 1   
    32    20    42 1   
    33    21    46 1   
    34    46    22 1   
    35    46    24 1   
    36    22    23 ar  
    37    22    25 ar  
    38    23    28 ar  
    39    25    26 ar  
    40    25    43 1   
    41    26    27 ar  
    42    26    44 1   
    43    27    28 ar  
    44    27    29 1   
    45    28    45 1   
    46    29    30 1   
    47    29    31 1   
    48    29    32 1   
@<TRIPOS>SUBSTRUCTURE
     1 326         1 TEMP              0 ****  ****    0 ROOT
