@<TRIPOS>MOLECULE
molecule
   28    29     1     0     0
SMALL
bcc


@<TRIPOS>ATOM
      1 C1           0.0000     0.0000     0.0000 c3         1 327       0.230500
      2 C2          -0.3220    -1.5960     1.8520 ce         1 327       0.742800
      3 C3           2.1610    -1.2360     1.9150 cd         1 327       0.113100
      4 C7           1.5190     0.0000     0.0000 c3         1 327       0.121400
      5 C8          -0.4940     1.1710     0.8530 c3         1 327      -0.094400
      6 C9          -2.0180     1.2610     0.7630 c3         1 327      -0.084400
      7 C10         -2.5110     2.4320     1.6150 c3         1 327      -0.089100
      8 N1          -0.5640    -1.2340     0.5280 nu         1 327      -0.932200
      9 N2          -1.2550    -1.5520     2.7680 n2         1 327      -0.805100
     10 C4           1.0570    -2.0340     2.1540 cc         1 327      -0.230000
     11 S1           1.5700    -3.5610     2.8380 ss         1 327      -0.053800
     12 C5           3.2060    -3.0760     2.8140 cc         1 327      -0.103100
     13 C6           3.3360    -1.8470     2.3110 cd         1 327      -0.162000
     14 O1           2.0510     0.0000     1.3240 os         1 327      -0.315900
     15 H1          -0.3470     0.1320    -1.0180 h1         1 327       0.060700
     16 H7           1.8700    -0.8830    -0.5200 h1         1 327       0.056700
     17 H7A          1.8700     0.8830    -0.5190 h1         1 327       0.056700
     18 H8          -0.2010     1.0150     1.8840 hc         1 327       0.053200
     19 H8A         -0.0560     2.0930     0.4890 hc         1 327       0.053200
     20 H9          -2.3110     1.4160    -0.2680 hc         1 327       0.047200
     21 H9A         -2.4560     0.3400     1.1280 hc         1 327       0.047200
     22 H10         -2.1800     2.2990     2.6380 hc         1 327       0.031700
     23 H10A        -2.1090     3.3580     1.2220 hc         1 327       0.031700
     24 H10B        -3.5930     2.4680     1.5870 hc         1 327       0.031700
     25 HN1         -1.1240    -1.8200    -0.0590 hn         1 327       0.448800
     26 HN2         -1.0460    -1.8200     3.7090 hn         1 327       0.409400
     27 H5           4.0310    -3.6870     3.1610 h4         1 327       0.175000
     28 H6           4.3000    -1.3620     2.2130 ha         1 327       0.158000
@<TRIPOS>BOND
     1     1     4 1
     2     1     5 1
     3     1     8 1
     4     2     8 1
     5     2     9 2
     6     2    10 1
     7     3    10 2
     8     3    13 1
     9     3    14 1
    10     4    14 1
    11     5     6 1
    12     6     7 1
    13    10    11 1
    14    11    12 1
    15    12    13 2
    16     1    15 1
    17     4    16 1
    18     4    17 1
    19     5    18 1
    20     5    19 1
    21     6    20 1
    22     6    21 1
    23     7    22 1
    24     7    23 1
    25     7    24 1
    26     8    25 1
    27     9    26 1
    28    12    27 1
    29    13    28 1
@<TRIPOS>SUBSTRUCTURE
     1 327         1 TEMP              0 ****  ****    0 ROOT
