@<TRIPOS>MOLECULE
327
   28    29     1     0     0
SMALL
bcc


@<TRIPOS>ATOM
      1 C1           0.0000     0.0000     0.0000 c3         1 327       0.137500
      2 C2          -0.3220    -1.5960     1.8520 ce         1 327       0.571800
      3 C3           2.1610    -1.2360     1.9150 cd         1 327       0.109100
      4 C7           1.5190     0.0000     0.0000 c3         1 327       0.192400
      5 C8          -0.4940     1.1710     0.8530 c3         1 327      -0.057400
      6 C9          -2.0180     1.2610     0.7630 c3         1 327      -0.030400
      7 C10         -2.5110     2.4320     1.6150 c3         1 327       0.006900
      8 N1          -0.5640    -1.2340     0.5280 nu         1 327      -0.619200
      9 N2          -1.2550    -1.5520     2.7680 n2         1 327      -0.646100
     10 C4           1.0570    -2.0340     2.1540 cc         1 327      -0.106000
     11 S1           1.5700    -3.5610     2.8380 ss         1 327      -0.178800
     12 C5           3.2060    -3.0760     2.8140 cc         1 327      -0.019100
     13 C6           3.3360    -1.8470     2.3110 cd         1 327      -0.136000
     14 O1           2.0510     0.0000     1.3240 os         1 327      -0.294900
     15 H1          -0.3470     0.1320    -1.0180 h1         1 327       0.032700
     16 H7           1.8700     0.8830    -0.5200 h1         1 327       0.017700
     17 H7A          1.8700    -0.8830    -0.5200 h1         1 327       0.017700
     18 H8          -0.2010     1.0150     1.8840 hc         1 327       0.033700
     19 H8A         -0.0560     2.0930     0.4890 hc         1 327       0.033700
     20 H9          -2.4560     0.3400     1.1280 hc         1 327       0.010700
     21 H9A         -2.3110     1.4160    -0.2680 hc         1 327       0.010700
     22 H10         -2.1800     2.2990     2.6380 hc         1 327       0.002700
     23 H10A        -2.1090     3.3580     1.2220 hc         1 327       0.002700
     24 H10B        -3.5930     2.4680     1.5870 hc         1 327       0.002700
     25 HN1         -1.1240    -1.8200    -0.0590 hn         1 327       0.304800
     26 HN2         -2.1790    -1.2510     2.5270 hn         1 327       0.326400
     27 H5           4.0310    -3.6870     3.1610 h4         1 327       0.151000
     28 H6           4.3000    -1.3620     2.2130 ha         1 327       0.127000
@<TRIPOS>BOND
     1     1     4 1   
     2     1     5 1   
     3     1     8 1   
     4     1    15 1   
     5     2     8 1   
     6     2     9 2   
     7     2    10 1   
     8     3    10 2   
     9     3    13 1   
    10     3    14 1   
    11     4    14 1   
    12     4    16 1   
    13     4    17 1   
    14     5     6 1   
    15     5    18 1   
    16     5    19 1   
    17     6     7 1   
    18     6    20 1   
    19     6    21 1   
    20     7    22 1   
    21     7    23 1   
    22     7    24 1   
    23     8    25 1   
    24     9    26 1   
    25    10    11 1   
    26    11    12 1   
    27    12    13 2   
    28    12    27 1   
    29    13    28 1   
@<TRIPOS>SUBSTRUCTURE
     1 327         1 TEMP              0 ****  ****    0 ROOT
