@<TRIPOS>MOLECULE
molecule
   45    47     1     0     0
SMALL
bcc


@<TRIPOS>ATOM
      1 C1           0.0000     0.0000     0.0000 ca         1 328      -0.120000
      2 C2           1.3780     0.0000     0.0000 ca         1 328      -0.093000
      3 C3           2.0760     0.0000     1.2100 ca         1 328       0.031000
      4 C7           3.5080    -0.0000     1.2110 cg         1 328       0.237800
      5 C9          -9.7420    -0.5190    -3.0540 c3         1 328       0.109700
      6 C10         -4.3140    -0.6890     0.2320 c3         1 328       0.099000
      7 C12         -2.1360    -1.7150    -0.5370 c3         1 328       0.099000
      8 C13         -2.7470    -3.1090    -0.3610 c3         1 328      -0.127900
      9 C14         -4.2540    -3.0370    -0.6180 c3         1 328       0.185500
     10 C15         -4.9010    -2.0940     0.3990 c3         1 328      -0.127900
     11 C19         -8.8470    -2.4310    -2.0300 ca         1 328       0.081100
     12 C20         -8.9540    -3.4470    -3.1590 ca         1 328      -0.319300
     13 C21         -7.8930    -4.4490    -3.2470 ca         1 328       0.429200
     14 C24         -7.5240    -2.7660    -1.2080 ca         1 328      -0.227300
     15 N25          4.6440     0.0100     1.2290 n1         1 328      -0.352800
     16 C6          -0.6980     0.0010     1.2090 ca         1 328      -0.158600
     17 C5          -0.0010     0.0010     2.4180 ca         1 328      -0.120000
     18 C4           1.3760     0.0010     2.4190 ca         1 328      -0.093000
     19 N17         -4.8370    -4.3740    -0.4840 nu         1 328      -0.782900
     20 N11         -2.8510    -0.7730     0.3340 n          1 328      -0.467800
     21 O8          -2.7850     0.7000     1.9950 o          1 328      -0.599100
     22 O18         -9.7750    -1.3450    -1.8330 os         1 328      -0.328900
     23 C23         -6.8010    -3.7270    -1.5510 ca         1 328       0.526200
     24 N22         -6.8660    -4.6270    -2.5250 nb         1 328      -0.621000
     25 H1          -0.6960     0.1970    -0.8070 ha         1 328       0.161000
     26 H2           1.5260     0.2660    -1.0400 ha         1 328       0.156000
     27 H9         -10.0860     0.3060    -2.4410 h1         1 328       0.060700
     28 H9A        -10.2710    -0.9340    -3.9040 h1         1 328       0.060700
     29 H9B         -8.6800    -0.3500    -3.1780 h1         1 328       0.060700
     30 H10         -4.7870    -0.3560     1.1490 h1         1 328       0.069700
     31 H10A        -4.7490    -0.4290    -0.7250 h1         1 328       0.069700
     32 H12         -2.3240    -1.4340    -1.5670 h1         1 328       0.069700
     33 H12A        -1.0840    -1.8420    -0.3110 h1         1 328       0.069700
     34 H13         -2.5150    -3.7730     0.4620 hc         1 328       0.053450
     35 H13A        -2.4490    -3.6930    -1.2240 hc         1 328       0.053450
     36 H14         -4.4300    -2.6610    -1.6180 h1         1 328       0.051700
     37 H15         -5.9760    -2.0050     0.5010 hc         1 328       0.053450
     38 H15A        -4.7660    -2.1970     1.4690 hc         1 328       0.053450
     39 H20         -9.6430    -3.3600    -3.9910 ha         1 328       0.149000
     40 H21         -7.9780    -5.0460    -4.1460 h4         1 328       0.007100
     41 H24         -7.8070    -1.9700    -0.5290 ha         1 328       0.183000
     42 H5          -0.8050     0.0700     3.1410 ha         1 328       0.161000
     43 H4           1.8170    -0.3150     3.3570 ha         1 328       0.156000
     44 HN17        -4.3440    -5.2200    -0.6900 hn         1 328       0.370800
     45 C16         -2.1770     0.0010     1.2080 c          1 328       0.670700
@<TRIPOS>BOND
     1     1     2 ar  
     2     1    16 ar  
     3     2     3 ar  
     4     3     4 1   
     5     3    18 ar  
     6     4    15 3   
     7     5    22 1   
     8     6    10 1   
     9     6    20 1   
    10     7     8 1   
    11     7    20 1   
    12     8     9 1   
    13     9    10 1   
    14     9    19 1   
    15    45    16 1   
    16    45    20 1   
    17    45    21 2   
    18    11    12 ar  
    19    11    14 ar  
    20    11    22 1   
    21    12    13 ar  
    22    13    24 ar  
    23    14    23 ar  
    24    16    17 ar  
    25    17    18 ar  
    26    19    23 1   
    27    23    24 ar  
    28     1    25 1   
    29     2    26 1   
    30     5    27 1   
    31     5    28 1   
    32     5    29 1   
    33     6    30 1   
    34     6    31 1   
    35     7    32 1   
    36     7    33 1   
    37     8    34 1   
    38     8    35 1   
    39     9    36 1   
    40    10    37 1   
    41    10    38 1   
    42    12    39 1   
    43    13    40 1   
    44    14    41 1   
    45    17    42 1   
    46    18    43 1   
    47    19    44 1   
@<TRIPOS>SUBSTRUCTURE
     1 328         1 TEMP              0 ****  ****    0 ROOT
