@<TRIPOS>MOLECULE
328
   46    48     1     0     0
SMALL
bcc


@<TRIPOS>ATOM
      1 C1         -0.1610    0.5580    0.4140 ca        1 328     -0.095500
      2 C2          1.1760    0.8760    0.6410 ca        1 328     -0.098500
      3 C3          1.8290    0.3820    1.7800 ca        1 328      0.026000
      4 C7          3.1970    0.6960    2.0060 cg        1 328      0.209800
      5 C9        -10.1590   -5.8190   -1.9570 c3        1 328      0.103700
      6 C10        -4.1850   -1.0990   -0.3270 c3        1 328      0.083500
      7 C12        -1.9430   -1.6540   -1.0520 c3        1 328      0.083500
      8 C13        -2.2880   -3.1520   -1.1180 c3        1 328     -0.136900
      9 C14        -3.7830   -3.3130   -1.4100 c3        1 328      0.129500
     10 C15        -4.6130   -2.5730   -0.3590 c3        1 328     -0.136900
     11 C19        -7.8170   -5.4090   -2.0890 ca        1 328      0.195100
     12 C20        -7.8100   -5.4440   -3.4900 ca        1 328     -0.282300
     13 C21        -6.5830   -5.2480   -4.1520 ca        1 328      0.468200
     14 C24        -6.6050   -5.1810   -1.3880 ca        1 328     -0.246300
     15 N25         4.3170    0.9520    2.1900 n1        1 328     -0.316800
     16 C6         -0.8510   -0.2500    1.3240 ca        1 328     -0.138600
     17 C5         -0.2070   -0.7250    2.4730 ca        1 328     -0.095500
     18 C4          1.1330   -0.4160    2.6990 ca        1 328     -0.098500
     19 N17        -4.1540   -4.7810   -1.4760 n4        1 328     -0.749700
     20 N11        -2.7650   -0.9040   -0.1370 n         1 328     -0.463800
     21 O8         -3.1010   -0.4650    2.0900 o         1 328     -0.557100
     22 O18        -8.9130   -5.5760   -1.2940 os        1 328     -0.300900
     23 C23        -5.4480   -5.0050   -2.1620 ca        1 328      0.483200
     24 N22        -5.4160   -5.0300   -3.5270 nb        1 328     -0.685000
     25 H1         -0.6740    0.9630   -0.4730 ha        1 328      0.154500
     26 H2          1.7190    1.5200   -0.0690 ha        1 328      0.161000
     27 H9        -10.8770   -5.9220   -1.1020 h1        1 328      0.069700
     28 H9A       -10.4300   -4.9510   -2.6040 h1        1 328      0.069700
     29 H9B       -10.1050   -6.7640   -2.5500 h1        1 328      0.069700
     30 H10        -4.7530   -0.5830    0.5010 h1        1 328      0.085700
     31 H10A       -4.4670   -0.6180   -1.3080 h1        1 328      0.085700
     32 H12        -0.8560   -1.5570   -0.7730 h1        1 328      0.085700
     33 H12A       -2.0810   -1.2120   -2.0820 h1        1 328      0.085700
     34 H13        -2.0200   -3.6460   -0.1490 hc        1 328      0.073950
     35 H13A       -1.6720   -3.6130   -1.9330 hc        1 328      0.073950
     36 H14        -4.0050   -2.8810   -2.4330 hx        1 328      0.123700
     37 H15        -4.4650   -3.0280    0.6560 hc        1 328      0.073950
     38 H15A       -5.7040   -2.6230   -0.6120 hc        1 328      0.073950
     39 H20        -8.7270   -5.6200   -4.0700 ha        1 328      0.184000
     40 H21        -6.5260   -5.2670   -5.2600 h4        1 328      0.064100
     41 H24        -6.6160   -5.1520   -0.2880 ha        1 328      0.182000
     42 H5         -0.7690   -1.3240    3.2080 ha        1 328      0.154500
     43 H4          1.6400   -0.7890    3.6030 ha        1 328      0.161000
     44 HN17       -3.4090   -5.2830   -1.9790 hn        1 328      0.460800
     45 C16        -2.2950   -0.5590    1.1490 c         1 328      0.666700
     46 H172       -4.2250   -5.1570   -0.5240 hn        1 328      0.460800
@<TRIPOS>BOND
     1    1    2 ar  
     2    1   16 ar  
     3    1   25 1   
     4    2    3 ar  
     5    2   26 1   
     6    3    4 1   
     7    3   18 ar  
     8    4   15 3   
     9    5   22 1   
    10    5   27 1   
    11    5   28 1   
    12    5   29 1   
    13    6   10 1   
    14    6   20 1   
    15    6   30 1   
    16    6   31 1   
    17    7    8 1   
    18    7   20 1   
    19    7   32 1   
    20    7   33 1   
    21    8    9 1   
    22    8   34 1   
    23    8   35 1   
    24    9   10 1   
    25    9   19 1   
    26    9   36 1   
    27   10   37 1   
    28   10   38 1   
    29   11   12 ar  
    30   11   14 ar  
    31   11   22 1   
    32   12   13 ar  
    33   12   39 1   
    34   13   24 ar  
    35   13   40 1   
    36   14   23 ar  
    37   14   41 1   
    38   16   17 ar  
    39   16   45 1   
    40   17   18 ar  
    41   17   42 1   
    42   18   43 1   
    43   19   23 1   
    44   19   44 1   
    45   19   46 1   
    46   20   45 1   
    47   21   45 2   
    48   23   24 ar  
@<TRIPOS>SUBSTRUCTURE
     1 328         1 TEMP              0 ****  ****    0 ROOT
