@<TRIPOS>MOLECULE
molecule
   23    24     1     0     0
SMALL
bcc


@<TRIPOS>ATOM
      1 C1           0.0000     0.0000     0.0000 cc         1 329      -0.175000
      2 C2           1.3840     0.0000     0.0000 cc         1 329       0.193100
      3 O1           2.1970     0.0000     1.1000 os         1 329      -0.318900
      4 C3           2.9180    -1.2000     1.3650 c3         1 329       0.147100
      5 C4           1.9800    -2.2180     2.0150 c3         1 329      -0.126100
      6 N1           4.1110    -0.7940    -0.7940 n2         1 329      -0.517900
      7 C5           3.3510     0.0010    -1.5230 cf         1 329       0.513800
      8 N2           3.8970     0.8250    -2.4870 nz         1 329      -0.730600
      9 C6           1.9020    -0.0260    -1.2730 cd         1 329      -0.314000
     10 S1           0.6020    -0.0810    -2.4430 ss         1 329      -0.029800
     11 C7          -0.5740    -0.0430    -1.2050 cd         1 329      -0.026100
     12 C8           3.4810    -1.7860     0.0700 c3         1 329       0.079800
     13 H1          -0.5790     0.0290     0.9150 ha         1 329       0.189000
     14 H3           3.7360    -0.9800     2.0400 h1         1 329       0.112700
     15 H4           1.4620    -1.7540     2.8460 hc         1 329       0.063033
     16 H4A          2.5560    -3.0620     2.3750 hc         1 329       0.063033
     17 H4B          1.2560    -2.5600     1.2850 hc         1 329       0.063033
     18 HN2          4.8330     1.0670    -2.2280 hn         1 329       0.471467
     19 HN2A         3.9070     0.3490    -3.3670 hn         1 329       0.471467
     20 H7          -1.6430    -0.0530    -1.3750 h4         1 329       0.205000
     21 H8           4.2430    -2.5050     0.3450 h1         1 329       0.096700
     22 H8A          2.6500    -2.2120    -0.4800 h1         1 329       0.096700
     23 H23          3.4010     1.6950    -2.5020 hn         1 329       0.471467
@<TRIPOS>BOND
     1     1     2 1
     2     1    11 2
     3     2     3 1
     4     2     9 2
     5     3     4 1
     6     4     5 1
     7     4    12 1
     8     6     7 2
     9     6    12 1
    10     7     8 1
    11     7     9 1
    12     9    10 1
    13    10    11 1
    14     1    13 1
    15     4    14 1
    16     5    15 1
    17     5    16 1
    18     5    17 1
    19     8    18 1
    20     8    19 1
    21    11    20 1
    22    12    21 1
    23    12    22 1
    24    23     8 1
@<TRIPOS>SUBSTRUCTURE
     1 329         1 TEMP              0 ****  ****    0 ROOT
