@<TRIPOS>MOLECULE
329
   23    24     1     0     0
SMALL
bcc


@<TRIPOS>ATOM
      1 C1           0.0000     0.0000     0.0000 cc         1 329      -0.154000
      2 C2           1.3840     0.0000     0.0000 cc         1 329       0.218100
      3 O1           2.1970     0.0000     1.1000 os         1 329      -0.305900
      4 C3           2.9180    -1.2000     1.3650 c3         1 329       0.191100
      5 C4           1.9800    -2.2180     2.0150 c3         1 329      -0.031100
      6 N1           4.1110    -0.7940    -0.7940 n2         1 329      -0.370900
      7 C5           3.3510     0.0010    -1.5230 cf         1 329       0.245800
      8 N2           3.8970     0.8250    -2.4870 nz         1 329       0.212400
      9 C6           1.9020    -0.0260    -1.2730 cd         1 329      -0.277000
     10 S1           0.6020    -0.0810    -2.4430 ss         1 329      -0.162800
     11 C7          -0.5740    -0.0430    -1.2050 cd         1 329       0.083900
     12 C8           3.4810    -1.7860     0.0700 c3         1 329       0.091800
     13 H1          -0.5790     0.0290     0.9150 ha         1 329       0.156000
     14 H3           3.7360    -0.9800     2.0400 h1         1 329       0.065700
     15 H4           1.4620    -1.7540     2.8460 hc         1 329       0.028367
     16 H4A          2.5560    -3.0620     2.3750 hc         1 329       0.028367
     17 H4B          1.2560    -2.5600     1.2850 hc         1 329       0.028367
     18 HN2          4.8330     1.0670    -2.2280 hn         1 329       0.218800
     19 HN2A         3.9070     0.3490    -3.3670 hn         1 329       0.218800
     20 H7          -1.6430    -0.0530    -1.3750 h4         1 329       0.173000
     21 H8           4.2430    -2.5050     0.3450 h1         1 329       0.061200
     22 H8A          2.6500    -2.2120    -0.4800 h1         1 329       0.061200
     23 H23          3.4010     1.6950    -2.5020 hn         1 329       0.218800
@<TRIPOS>BOND
     1     1     2 1   
     2     1    11 2   
     3     1    13 1   
     4     2     3 1   
     5     2     9 2   
     6     3     4 1   
     7     4     5 1   
     8     4    12 1   
     9     4    14 1   
    10     5    15 1   
    11     5    16 1   
    12     5    17 1   
    13     6     7 2   
    14     6    12 1   
    15     7     8 1   
    16     7     9 1   
    17     8    18 1   
    18     8    19 1   
    19     8    23 1   
    20     9    10 1   
    21    10    11 1   
    22    11    20 1   
    23    12    21 1   
    24    12    22 1   
@<TRIPOS>SUBSTRUCTURE
     1 329         1 TEMP              0 ****  ****    0 ROOT
