@<TRIPOS>MOLECULE
32A
   36    36     1     0     0
SMALL
bcc


@<TRIPOS>ATOM
      1 C1         -0.2970    0.1630    0.1740 cc        1 32A      0.173200
      2 C2         -1.2980    0.6310   -0.7920 c         1 32A      0.565600
      3 C3         -4.5740    0.6150   -1.8400 c         1 32A      0.522400
      4 C4          0.4840   -0.4430    2.1850 cc        1 32A      0.421700
      5 C5          1.0390   -0.1580    0.0010 cd        1 32A     -0.159300
      6 C6          0.3710   -0.6790    3.5490 cg        1 32A     -0.251000
      7 C7          0.2930   -0.8880    4.7270 c1        1 32A     -0.041100
      8 N1         -2.6410    0.6780   -0.3550 n         1 32A     -0.451500
      9 N2         -3.6150    1.3450   -1.0380 n         1 32A     -0.329500
     10 N3         -4.7960   -0.7150   -1.6020 n         1 32A     -0.491900
     11 C9          0.2200   -1.1460    6.1330 c3        1 32A     -0.014300
     12 C8          1.5430   -0.5480    1.2920 cd        1 32A     -0.252300
     13 O2         -0.9790    0.9120   -1.9610 o         1 32A     -0.561100
     14 C10        -5.8690   -1.4230   -2.2340 c3        1 32A      0.065300
     15 S1         -5.4060    1.4930   -2.9110 s         1 32A     -0.537400
     16 O1         -0.6710   -0.0040    1.5150 os        1 32A     -0.353800
     17 C11        -1.0500   -0.5900    6.7550 c3        1 32A     -0.076400
     18 C12        -1.0900   -0.8820    8.2410 c3        1 32A     -0.081400
     19 C13        -2.3450   -0.3360    8.8720 c3        1 32A     -0.094100
     20 H5          1.6020   -0.1200   -0.9310 ha        1 32A      0.183000
     21 HN1        -2.7700    0.7770    0.6390 hn        1 32A      0.333500
     22 HN2        -3.2450    2.1060   -1.6070 hn        1 32A      0.318500
     23 HN3        -4.2680   -1.2130   -0.9220 hn        1 32A      0.324500
     24 H9          0.2690   -2.2580    6.3080 hc        1 32A      0.069200
     25 H9A         1.1180   -0.6900    6.6390 hc        1 32A      0.069200
     26 H8          2.5590   -0.8630    1.5150 ha        1 32A      0.176000
     27 H10        -6.1310   -0.9400   -3.2170 h1        1 32A      0.060367
     28 H10A       -5.5460   -2.4840   -2.4090 h1        1 32A      0.060367
     29 H10B       -6.7820   -1.4190   -1.5780 h1        1 32A      0.060367
     30 H11        -1.1000    0.5170    6.5860 hc        1 32A      0.051200
     31 H11A       -1.9450   -1.0450    6.2560 hc        1 32A      0.051200
     32 H12        -1.0360   -1.9900    8.4060 hc        1 32A      0.040700
     33 H12A       -0.1910   -0.4290    8.7360 hc        1 32A      0.040700
     34 H13        -2.4050    0.7710    8.7390 hc        1 32A      0.036367
     35 H13A       -3.2520   -0.7950    8.4080 hc        1 32A      0.036367
     36 H13B       -2.3560   -0.5610    9.9660 hc        1 32A      0.036367
@<TRIPOS>BOND
     1    1    2 1   
     2    1    5 2   
     3    1   16 1   
     4    2    8 1   
     5    2   13 2   
     6    3    9 1   
     7    3   10 1   
     8    3   15 2   
     9    4    6 1   
    10    4   12 2   
    11    4   16 1   
    12    5   12 1   
    13    5   20 1   
    14    6    7 3   
    15    7   11 1   
    16    8    9 1   
    17    8   21 1   
    18    9   22 1   
    19   10   14 1   
    20   10   23 1   
    21   11   17 1   
    22   11   24 1   
    23   11   25 1   
    24   12   26 1   
    25   14   27 1   
    26   14   28 1   
    27   14   29 1   
    28   17   18 1   
    29   17   30 1   
    30   17   31 1   
    31   18   19 1   
    32   18   32 1   
    33   18   33 1   
    34   19   34 1   
    35   19   35 1   
    36   19   36 1   
@<TRIPOS>SUBSTRUCTURE
     1 32A         1 TEMP              0 ****  ****    0 ROOT
