@<TRIPOS>MOLECULE
32B
   66    69     1     0     0
SMALL
bcc


@<TRIPOS>ATOM
      1 C1           0.0000     0.0000     0.0000 c3         1 32B      -0.024100
      2 C2           1.5300     0.0000     0.0000 c3         1 32B      -0.076400
      3 C3           2.0400     0.0000     1.4430 c3         1 32B       0.201800
      4 C4           3.5420     0.1200     1.4460 ca         1 32B      -0.129300
      5 C5           4.3220    -0.9990     1.6870 ca         1 32B      -0.138000
      6 C6           5.6950    -0.9020     1.6930 ca         1 32B      -0.060000
      7 C7           6.3110     0.3300     1.4520 ca         1 32B      -0.101600
      8 C8           5.5220     1.4610     1.2060 ca         1 32B       0.096100
      9 C9           4.1360     1.3460     1.2000 ca         1 32B       0.065100
     10 O10          3.3630     2.4400     0.9580 os         1 32B      -0.333900
     11 C11          2.9720     3.2210     2.0880 c3         1 32B       0.248700
     12 O12          6.1080     2.6630     0.9720 os         1 32B      -0.179200
     13 C13          6.4050     2.9880    -0.3140 ca         1 32B       0.228100
     14 C14          6.1040     2.1050    -1.3410 ca         1 32B      -0.188000
     15 C15          6.4060     2.4370    -2.6470 ca         1 32B      -0.055000
     16 C16          7.0090     3.6480    -2.9330 ca         1 32B      -0.172000
     17 C17          7.3100     4.5310    -1.9110 ca         1 32B       0.013400
     18 C18          7.0040     4.2050    -0.6010 ca         1 32B      -0.141000
     19 Cl           8.0660     6.0510    -2.2720 cl         1 32B      -0.077400
     20 C20          7.7810     0.4380     1.4570 c          1 32B       0.967200
     21 O21          8.5360    -0.6530     1.6940 o          1 32B      -0.870800
     22 O22          8.3120     1.5100     1.2470 o          1 32B      -0.870800
     23 N23          1.6480    -1.2530     2.1010 n3         1 32B      -0.518600
     24 C24          1.7090    -2.3820     1.1640 c3         1 32B       0.104800
     25 C25          1.4370    -3.6860     1.9150 c3         1 32B      -0.013400
     26 C26          0.0530    -3.6150     2.5660 c3         1 32B      -0.063400
     27 C27         -0.0020    -2.4040     3.5000 c3         1 32B       0.016700
     28 C28          0.3130    -1.1360     2.7030 c3         1 32B       0.088800
     29 N29         -1.3410    -2.2950     4.0840 n          1 32B       0.065000
     30 C30         -1.4960    -2.3560     5.4420 cc         1 32B      -0.087400
     31 C31         -2.7320    -2.2550     5.9790 cd         1 32B      -0.297400
     32 C32         -3.8450    -2.0890     5.1200 c          1 32B       0.623700
     33 O33         -4.9680    -1.9950     5.5820 o          1 32B      -0.671500
     34 N34         -3.6490    -2.0340     3.7870 ns         1 32B      -0.129500
     35 C35         -2.4070    -2.1310     3.2790 c          1 32B       0.586500
     36 O36         -2.2460    -2.0800     2.0750 o          1 32B      -0.708500
     37 C37         -2.9220    -2.3200     7.4720 c3         1 32B       0.105100
     38 H1          -0.3610     0.5120    -0.8840 hc         1 32B       0.009033
     39 H2          -0.3610     0.5100     0.8850 hc         1 32B       0.009033
     40 H3          -0.3610    -1.0210    -0.0010 hc         1 32B       0.009033
     41 H4           1.8920     0.8850    -0.5100 hc         1 32B       0.037700
     42 H5           1.8920    -0.8840    -0.5110 hc         1 32B       0.037700
     43 H6           1.6100     0.8380     1.9780 h1         1 32B       0.037700
     44 H7           3.8480    -1.9550     1.8740 ha         1 32B       0.119000
     45 H8           6.2990    -1.7810     1.8830 ha         1 32B       0.135000
     46 H9           3.6070     4.0970     2.1580 h1         1 32B      -0.012967
     47 H10          1.9410     3.5310     1.9740 h1         1 32B      -0.012967
     48 H11          3.0740     2.6290     2.9900 h1         1 32B      -0.012967
     49 H12          5.6320     1.1550    -1.1190 ha         1 32B       0.128000
     50 H13          6.1710     1.7470    -3.4490 ha         1 32B       0.091000
     51 H14          7.2470     3.9060    -3.9580 ha         1 32B       0.102000
     52 H15          7.2390     4.8970     0.1990 ha         1 32B       0.123000
     53 H18          0.9610    -2.2490     0.3910 h1         1 32B       0.039700
     54 H19          2.6950    -2.4240     0.7160 h1         1 32B       0.039700
     55 H20          1.4660    -4.5160     1.2190 hc         1 32B       0.019700
     56 H21          2.1900    -3.8240     2.6820 hc         1 32B       0.019700
     57 H22         -0.1240    -4.5190     3.1370 hc         1 32B       0.034700
     58 H23         -0.7030    -3.5120     1.7970 hc         1 32B       0.034700
     59 H24          0.7320    -2.5250     4.2880 h1         1 32B       0.052700
     60 H25          0.2910    -0.2800     3.3660 h1         1 32B       0.044700
     61 H26         -0.4250    -1.0110     1.9200 h1         1 32B       0.044700
     62 H27         -0.6330    -2.4830     6.0830 h4         1 32B       0.140000
     63 H28         -4.4310    -1.9140     3.1730 hn         1 32B       0.203500
     64 H29         -1.9540    -2.3490     7.9590 hc         1 32B       0.008033
     65 H30         -3.4810    -3.2130     7.7270 hc         1 32B       0.008033
     66 H31         -3.4680    -1.4450     7.8050 hc         1 32B       0.008033
@<TRIPOS>BOND
     1     1     2 1   
     2     1    38 1   
     3     1    39 1   
     4     1    40 1   
     5     2     3 1   
     6     2    41 1   
     7     2    42 1   
     8     3     4 1   
     9     3    23 1   
    10     3    43 1   
    11     4     5 ar  
    12     4     9 ar  
    13     5     6 ar  
    14     5    44 1   
    15     6     7 ar  
    16     6    45 1   
    17     7     8 ar  
    18     7    20 1   
    19     8     9 ar  
    20     8    12 1   
    21     9    10 1   
    22    10    11 1   
    23    11    46 1   
    24    11    47 1   
    25    11    48 1   
    26    12    13 1   
    27    13    14 ar  
    28    13    18 ar  
    29    14    15 ar  
    30    14    49 1   
    31    15    16 ar  
    32    15    50 1   
    33    16    17 ar  
    34    16    51 1   
    35    17    18 ar  
    36    17    19 1   
    37    18    52 1   
    38    20    21 1   
    39    20    22 1   
    40    23    24 1   
    41    23    28 1   
    42    24    25 1   
    43    24    53 1   
    44    24    54 1   
    45    25    26 1   
    46    25    55 1   
    47    25    56 1   
    48    26    27 1   
    49    26    57 1   
    50    26    58 1   
    51    27    28 1   
    52    27    29 1   
    53    27    59 1   
    54    28    60 1   
    55    28    61 1   
    56    29    30 1   
    57    29    35 1   
    58    30    31 2   
    59    30    62 1   
    60    31    32 1   
    61    31    37 1   
    62    32    33 2   
    63    32    34 1   
    64    34    35 1   
    65    34    63 1   
    66    35    36 2   
    67    37    64 1   
    68    37    65 1   
    69    37    66 1   
@<TRIPOS>SUBSTRUCTURE
     1 32B         1 TEMP              0 ****  ****    0 ROOT
