@<TRIPOS>MOLECULE
32C
   68    71     1     0     0
SMALL
bcc


@<TRIPOS>ATOM
      1 C1           0.0000     0.0000     0.0000 c3         1 32C       0.105100
      2 C2           1.5070     0.0000     0.0000 cc         1 32C      -0.295400
      3 C3           2.1910     0.0000     1.1640 cd         1 32C      -0.088400
      4 N4           3.5590    -0.0000     1.1450 n          1 32C       0.066000
      5 C5           4.2290    -0.0010    -0.0210 c          1 32C       0.586500
      6 O6           5.4450    -0.0010    -0.0140 o          1 32C      -0.710500
      7 N7           3.5720    -0.0020    -1.1960 ns         1 32C      -0.128500
      8 C8           2.2240    -0.0070    -1.2200 c          1 32C       0.622700
      9 O9           1.6290    -0.0070    -2.2830 o          1 32C      -0.671500
     10 C10          4.3020    -0.0000     2.4080 c3         1 32C       0.016700
     11 C11          5.1860    -1.2480     2.4820 c3         1 32C      -0.064400
     12 C12          6.0030    -1.2100     3.7770 c3         1 32C      -0.013400
     13 C13          6.8360     0.0740     3.8100 c3         1 32C       0.102800
     14 N14          5.9440     1.2390     3.7390 n3         1 32C      -0.515600
     15 C15          5.1840     1.2480     2.4830 c3         1 32C       0.087800
     16 C16          6.6970     2.4890     3.9090 c3         1 32C       0.189800
     17 C17          8.1050     2.3180     3.3380 c3         1 32C      -0.070400
     18 C18          8.0210     2.1130     1.8240 c3         1 32C      -0.089700
     19 C19          7.3900     3.3470     1.1770 c3         1 32C       0.001900
     20 C20          9.4260     1.9020     1.2580 c3         1 32C       0.001900
     21 C21          6.7860     2.8250     5.3740 ca         1 32C      -0.135300
     22 C22          6.6900     1.8180     6.3200 ca         1 32C      -0.121000
     23 C23          6.7720     2.1140     7.6630 ca         1 32C      -0.064000
     24 C24          6.9510     3.4370     8.0770 ca         1 32C      -0.087600
     25 C25          7.0490     4.4550     7.1180 ca         1 32C       0.086100
     26 C26          6.9700     4.1380     5.7680 ca         1 32C       0.053900
     27 F27          7.0620     5.1150     4.8400 f          1 32C      -0.138900
     28 O28          7.2220     5.7430     7.5070 os         1 32C      -0.173200
     29 C29          8.4940     6.1990     7.6520 ca         1 32C       0.220100
     30 C30          8.7210     7.5100     8.0480 ca         1 32C      -0.134000
     31 C31         10.0150     7.9720     8.1940 ca         1 32C      -0.064000
     32 C32         11.0830     7.1310     7.9450 ca         1 32C      -0.169000
     33 C33         10.8610     5.8230     7.5500 ca         1 32C       0.021400
     34 C34          9.5680     5.3550     7.4080 ca         1 32C      -0.194000
     35 C36          7.0390     3.7590     9.5120 c          1 32C       0.966200
     36 O37          7.1950     4.9110     9.8680 o          1 32C      -0.868300
     37 O38          6.9450     2.7770    10.4310 o          1 32C      -0.868300
     38 Cl          12.2050     4.7690     7.2390 cl         1 32C      -0.071400
     39 H1          -0.3610     0.9150    -0.4530 hc         1 32C       0.008367
     40 H2          -0.3610    -0.8500    -0.5660 hc         1 32C       0.008367
     41 H3          -0.3610    -0.0650     1.0190 hc         1 32C       0.008367
     42 H4           1.6620     0.1080     2.1040 h4         1 32C       0.141000
     43 H5           4.0870    -0.0040    -2.0540 hn         1 32C       0.203500
     44 H6           3.6090    -0.0010     3.2410 h1         1 32C       0.054700
     45 H7           5.8580    -1.2650     1.6320 hc         1 32C       0.035200
     46 H8           4.5620    -2.1330     2.4750 hc         1 32C       0.035200
     47 H9           5.3330    -1.2280     4.6270 hc         1 32C       0.019700
     48 H10          6.6630    -2.0690     3.8120 hc         1 32C       0.019700
     49 H11          7.5120     0.0860     2.9640 h1         1 32C       0.039700
     50 H12          7.4020     0.1110     4.7330 h1         1 32C       0.039700
     51 H14          4.5590     2.1320     2.4480 h1         1 32C       0.047200
     52 H15          5.8720     1.2530     1.6460 h1         1 32C       0.047200
     53 H16          6.1890     3.2900     3.3850 h1         1 32C       0.050700
     54 H17          8.6910     3.2040     3.5500 hc         1 32C       0.038200
     55 H18          8.5770     1.4560     3.7930 hc         1 32C       0.038200
     56 H19          7.4120     1.2420     1.6110 hc         1 32C       0.055700
     57 H20          7.9550     4.2290     1.4540 hc         1 32C       0.004033
     58 H21          7.4010     3.2360     0.0990 hc         1 32C       0.004033
     59 H22          6.3670     3.4520     1.5180 hc         1 32C       0.004033
     60 H23          9.9200     1.1080     1.8040 hc         1 32C       0.004033
     61 H24          9.3570     1.6330     0.2110 hc         1 32C       0.004033
     62 H25          9.9960     2.8180     1.3580 hc         1 32C       0.004033
     63 H26          6.5510     0.7910     6.0020 ha         1 32C       0.117000
     64 H27          6.6960     1.3220     8.3990 ha         1 32C       0.137000
     65 H28          7.8850     8.1710     8.2430 ha         1 32C       0.114000
     66 H29         10.1920     8.9950     8.5030 ha         1 32C       0.091000
     67 H30         12.0970     7.4960     8.0580 ha         1 32C       0.102000
     68 H31          9.3930     4.3310     7.0990 ha         1 32C       0.136000
@<TRIPOS>BOND
     1     1     2 1   
     2     1    39 1   
     3     1    40 1   
     4     1    41 1   
     5     2     3 2   
     6     2     8 1   
     7     3     4 1   
     8     3    42 1   
     9     4     5 1   
    10     4    10 1   
    11     5     6 2   
    12     5     7 1   
    13     7     8 1   
    14     7    43 1   
    15     8     9 2   
    16    10    11 1   
    17    10    15 1   
    18    10    44 1   
    19    11    12 1   
    20    11    45 1   
    21    11    46 1   
    22    12    13 1   
    23    12    47 1   
    24    12    48 1   
    25    13    14 1   
    26    13    49 1   
    27    13    50 1   
    28    14    15 1   
    29    14    16 1   
    30    15    51 1   
    31    15    52 1   
    32    16    17 1   
    33    16    21 1   
    34    16    53 1   
    35    17    18 1   
    36    17    54 1   
    37    17    55 1   
    38    18    19 1   
    39    18    20 1   
    40    18    56 1   
    41    19    57 1   
    42    19    58 1   
    43    19    59 1   
    44    20    60 1   
    45    20    61 1   
    46    20    62 1   
    47    21    22 ar  
    48    21    26 ar  
    49    22    23 ar  
    50    22    63 1   
    51    23    24 ar  
    52    23    64 1   
    53    24    25 ar  
    54    24    35 1   
    55    25    26 ar  
    56    25    28 1   
    57    26    27 1   
    58    28    29 1   
    59    29    30 ar  
    60    29    34 ar  
    61    30    31 ar  
    62    30    65 1   
    63    31    32 ar  
    64    31    66 1   
    65    32    33 ar  
    66    32    67 1   
    67    33    34 ar  
    68    33    38 1   
    69    34    68 1   
    70    35    36 1   
    71    35    37 1   
@<TRIPOS>SUBSTRUCTURE
     1 32C         1 TEMP              0 ****  ****    0 ROOT
