@<TRIPOS>MOLECULE
32D
   49    53     1     0     0
SMALL
bcc


@<TRIPOS>ATOM
      1 C1           0.0000     0.0000     0.0000 ca         1 32D      -0.004000
      2 C2           1.3860     0.0000     0.0000 ca         1 32D      -0.085000
      3 C3           2.0720     0.0000     1.1900 ca         1 32D      -0.042300
      4 C4           1.3820    -0.0010     2.4050 ca         1 32D      -0.265900
      5 C5          -0.0140    -0.0010     2.3990 ca         1 32D       0.149900
      6 C6          -0.6960    -0.0000     1.1950 ca         1 32D      -0.103000
      7 F7          -0.6970    -0.0030     3.5650 f          1 32D      -0.125900
      8 C8           2.3800    -0.0010     3.4930 ce         1 32D       0.207800
      9 N9           3.5880    -0.0010     3.0180 n2         1 32D      -0.357900
     10 C10          3.5360    -0.0000     1.5510 c3         1 32D       0.285100
     11 C11          4.2050     1.2360     1.0090 ca         1 32D      -0.113300
     12 C12          3.7340     1.8240    -0.1510 ca         1 32D      -0.112000
     13 C13          4.3430     2.9580    -0.6540 ca         1 32D      -0.071000
     14 C14          5.4270     3.5110    -0.0020 ca         1 32D      -0.072000
     15 C15          5.9050     2.9230     1.1670 cp         1 32D       0.004000
     16 C16          5.2840     1.7830     1.6720 ca         1 32D      -0.091000
     17 C17          7.0710     3.5120     1.8740 cp         1 32D      -0.299600
     18 C18          7.7030     4.6570     1.3840 ca         1 32D       0.449700
     19 N19          8.7370     5.1490     2.0430 nb         1 32D      -0.614000
     20 C20          9.1720     4.5750     3.1480 ca         1 32D       0.645900
     21 N21          8.6050     3.4930     3.6440 nb         1 32D      -0.614000
     22 C22          7.5610     2.9390     3.0490 ca         1 32D       0.449700
     23 C24          4.2060    -1.2360     1.0080 ca         1 32D      -0.083300
     24 C25          3.7470    -1.8380    -0.1530 ca         1 32D      -0.213300
     25 C26          4.3870    -2.9700    -0.6230 ca         1 32D       0.424200
     26 N27          5.4210    -3.4770     0.0210 nb         1 32D      -0.503000
     27 C28          5.8830    -2.9300     1.1280 ca         1 32D       0.304600
     28 C29          5.2980    -1.7940     1.6540 ca         1 32D      -0.173300
     29 C30          7.0670    -3.5490     1.8260 c3         1 32D       0.367600
     30 F31          7.8900    -4.1750     0.8830 f          1 32D      -0.208800
     31 F32          7.7910    -2.5530     2.4890 f          1 32D      -0.208800
     32 N34          2.0690    -0.0020     4.8360 nz         1 32D       0.222400
     33 H1          -0.5400     0.0010    -0.9390 ha         1 32D       0.132000
     34 H2           1.9280     0.0000    -0.9380 ha         1 32D       0.146000
     35 H6          -1.7790    -0.0000     1.1880 ha         1 32D       0.145000
     36 H341         1.5350    -0.8200     5.0540 hn         1 32D       0.220133
     37 H342         2.9140    -0.0020     5.3740 hn         1 32D       0.220133
     38 H12          2.8830     1.3940    -0.6670 ha         1 32D       0.118000
     39 H16          5.6520     1.3220     2.5810 ha         1 32D       0.122000
     40 H13          3.9690     3.4140    -1.5630 ha         1 32D       0.118000
     41 H14          5.9040     4.3990    -0.3980 ha         1 32D       0.125000
     42 H18          7.3520     5.1340     0.4770 h4         1 32D      -0.012400
     43 H22          7.1000     2.0500     3.4630 h4         1 32D      -0.012400
     44 H20         10.0240     5.0030     3.6620 h5         1 32D       0.010100
     45 H25          2.8990    -1.4260    -0.6860 ha         1 32D       0.129000
     46 H29          5.6830    -1.3500     2.5640 ha         1 32D       0.134000
     47 H26          4.0350    -3.4470    -1.5300 h4         1 32D      -0.001900
     48 H30          6.7200    -4.2810     2.5450 h2         1 32D       0.038700
     49 H343         1.5430     0.8190     5.0570 hn         1 32D       0.220133
@<TRIPOS>BOND
     1     1     2 ar  
     2     1     6 ar  
     3     1    33 1   
     4     2     3 ar  
     5     2    34 1   
     6     3     4 ar  
     7     3    10 1   
     8     4     5 ar  
     9     4     8 1   
    10     5     6 ar  
    11     5     7 1   
    12     6    35 1   
    13     8     9 2   
    14     8    32 1   
    15     9    10 1   
    16    10    11 1   
    17    10    23 1   
    18    11    12 ar  
    19    11    16 ar  
    20    12    13 ar  
    21    12    38 1   
    22    13    14 ar  
    23    13    40 1   
    24    14    15 ar  
    25    14    41 1   
    26    15    16 ar  
    27    15    17 1   
    28    16    39 1   
    29    17    18 ar  
    30    17    22 ar  
    31    18    19 ar  
    32    18    42 1   
    33    19    20 ar  
    34    20    21 ar  
    35    20    44 1   
    36    21    22 ar  
    37    22    43 1   
    38    23    24 ar  
    39    23    28 ar  
    40    24    25 ar  
    41    24    45 1   
    42    25    26 ar  
    43    25    47 1   
    44    26    27 ar  
    45    27    28 ar  
    46    27    29 1   
    47    28    46 1   
    48    29    30 1   
    49    29    31 1   
    50    29    48 1   
    51    32    36 1   
    52    32    37 1   
    53    32    49 1   
@<TRIPOS>SUBSTRUCTURE
     1 32D         1 TEMP              0 ****  ****    0 ROOT
