@<TRIPOS>MOLECULE
molecule
   68    71     1     0     0
SMALL
bcc


@<TRIPOS>ATOM
      1 C31          0.0000     0.0000     0.0000 ca         1 32E      -0.099000
      2 C23          5.0500    -1.1990     4.2640 ca         1 32E      -0.101000
      3 C22          5.3720     0.0020     4.8580 ca         1 32E      -0.132000
      4 C30          1.3810     0.0000     0.0000 ca         1 32E      -0.151000
      5 C32         -0.6940     0.0060     1.1950 ca         1 32E      -0.189000
      6 C34          1.3770     0.0010     2.4020 ca         1 32E      -0.180000
      7 C24          4.3960    -1.2120     3.0280 ca         1 32E      -0.075600
      8 C21          5.0460     1.1980     4.2400 ca         1 32E      -0.187300
      9 C29          2.0750     0.0000     1.2030 ca         1 32E       0.201100
     10 C25          4.0670    -0.0000     2.4050 ca         1 32E       0.074100
     11 C26          4.3950     1.2010     3.0210 ca         1 32E       0.100900
     12 C33         -0.0060     0.0120     2.3960 ca         1 32E       0.081400
     13 C3           0.7350     5.9970     4.6250 cc         1 32E       0.041600
     14 C2          -0.2200     6.4520     3.7860 cd         1 32E      -0.297400
     15 C8          -0.8770     5.5350     2.9290 c          1 32E       0.711700
     16 C5           0.4180     3.8050     3.8160 c          1 32E       0.801500
     17 C12          2.5870     2.5800     7.3970 c3         1 32E      -0.074400
     18 C11          1.4850     3.1340     6.4890 c3         1 32E      -0.105400
     19 C13          3.6970     1.9770     6.5340 c3         1 32E       0.152800
     20 C15          3.2160     3.5240     4.7320 c3         1 32E       0.136800
     21 C10          2.0910     4.1730     5.5410 c3         1 32E       0.122700
     22 C1          -0.5820     7.9140     3.7610 c3         1 32E      -0.008900
     23 C19          8.0470     3.3860     7.5560 c3         1 32E      -0.088100
     24 C20          7.5430     4.5410     5.3980 c3         1 32E      -0.088100
     25 C17          6.5730     2.2850     5.8640 c3         1 32E      -0.066400
     26 C16          5.4040     2.5050     4.9010 c3         1 32E       0.227800
     27 N7          -0.5370     4.2320     2.9700 ns         1 32E      -0.555500
     28 N4           1.0540     4.6660     4.6310 n          1 32E      -0.360000
     29 N14          4.2450     3.0110     5.6460 n3         1 32E      -0.726600
     30 O37          3.4860    -2.5010     1.3110 o          1 32E      -0.815300
     31 O38          4.3730    -3.6560     2.9870 o          1 32E      -0.815300
     32 O28          3.4330    -0.0010     1.2060 os         1 32E      -0.202200
     33 F27          4.0810     2.3720     2.4250 f          1 32E      -0.151900
     34 Cl          -0.8790     0.0200     3.8960 cl         1 32E      -0.138400
     35 H1          -0.5410    -0.0020    -0.9390 ha         1 32E       0.122000
     36 H2           5.3080    -2.1310     4.7510 ha         1 32E       0.167000
     37 H3           5.8810     0.0110     5.8140 ha         1 32E       0.123000
     38 H4           1.9230    -0.0030    -0.9380 ha         1 32E       0.141000
     39 H5          -1.7770     0.0110     1.1930 ha         1 32E       0.124000
     40 H6           1.9150     0.0030     3.3420 ha         1 32E       0.158000
     41 H7           1.1740     6.6630     5.3580 h4         1 32E       0.158000
     42 H8           2.9940     3.3820     8.0000 hc         1 32E       0.043200
     43 H9           2.1720     1.8120     8.0390 hc         1 32E       0.043200
     44 H10          0.7190     3.6020     7.0960 hc         1 32E       0.064200
     45 H11          1.0540     2.3250     5.9110 hc         1 32E       0.064200
     46 H12          4.4850     1.5990     7.1740 h1         1 32E       0.051700
     47 H13          3.2910     1.1690     5.9380 h1         1 32E       0.051700
     48 H14          3.6560     4.2620     4.0720 h1         1 32E       0.068700
     49 H15          2.8130     2.7050     4.1480 h1         1 32E       0.068700
     50 H16          2.4920     4.9960     6.1190 h1         1 32E       0.066700
     51 H17         -1.6220     8.0330     4.0400 hc         1 32E       0.042033
     52 H18          0.0440     8.4530     4.4620 hc         1 32E       0.042033
     53 H19         -0.4280     8.3070     2.7630 hc         1 32E       0.042033
     54 H20          7.6500     2.7300     8.3220 hc         1 32E       0.029533
     55 H21          8.9180     2.9270     7.1050 hc         1 32E       0.029533
     56 H22          8.3260     4.3330     8.0000 hc         1 32E       0.029533
     57 H23          8.0350     5.3880     5.8600 hc         1 32E       0.029533
     58 H24          8.2590     3.9860     4.8050 hc         1 32E       0.029533
     59 H25          6.7410     4.8940     4.7600 hc         1 32E       0.029533
     60 H26          6.2720     1.6000     6.6470 hc         1 32E       0.048700
     61 H27          7.4130     1.8680     5.3230 hc         1 32E       0.048700
     62 H28          5.6900     3.2260     4.1450 h1         1 32E       0.072700
     63 H29          6.1120     4.0900     6.9380 hc         1 32E       0.066700
     64 H30         -0.9980     3.5780     2.3680 hn         1 32E       0.367500
     65 C18          6.9790     3.6230     6.4860 c3         1 32E      -0.075700
     66 O9          -1.7420     5.9220     2.1640 o          1 32E      -0.638500
     67 C36          4.0540    -2.4930     2.3850 c          1 32E       0.876200
     68 O6           0.7180     2.6270     3.8370 o          1 32E      -0.626500
@<TRIPOS>BOND
     1    66    15 2
     2    27    15 1
     3    27    16 1
     4    15    14 1
     5    68    16 2
     6    16    28 1
     7    34    12 1
     8    14    22 1
     9    14    13 2
    10    28    13 1
    11    28    21 1
    12     5    12 ar
    13     5     1 ar
    14    12     6 ar
    15     1     4 ar
    16    21    20 1
    17    21    18 1
    18     6     9 ar
    19    20    29 1
    20     4     9 ar
    21    18    17 1
    22    33    11 1
    23     9    32 1
    24    29    26 1
    25    29    19 1
    26    32    10 1
    27    17    19 1
    28    11    10 ar
    29    11     8 ar
    30    26     8 1
    31    26    25 1
    32    23    65 1
    33    10     7 ar
    34     8     3 ar
    35    25    65 1
    36    65    24 1
    37     7    67 1
    38     7     2 ar
    39    30    67 1
    40     3     2 ar
    41    67    31 1
    42     1    35 1
    43     2    36 1
    44     3    37 1
    45     4    38 1
    46     5    39 1
    47     6    40 1
    48    13    41 1
    49    17    42 1
    50    17    43 1
    51    18    44 1
    52    18    45 1
    53    19    46 1
    54    19    47 1
    55    20    48 1
    56    20    49 1
    57    21    50 1
    58    22    51 1
    59    22    52 1
    60    22    53 1
    61    23    54 1
    62    23    55 1
    63    23    56 1
    64    24    57 1
    65    24    58 1
    66    24    59 1
    67    25    60 1
    68    25    61 1
    69    26    62 1
    70    65    63 1
    71    27    64 1
@<TRIPOS>SUBSTRUCTURE
     1 32E         1 TEMP              0 ****  ****    0 ROOT
