@<TRIPOS>MOLECULE
32E
   68    71     1     0     0
SMALL
bcc


@<TRIPOS>ATOM
      1 C31          0.0000     0.0000     0.0000 ca         1 32E      -0.067000
      2 C23          5.0500    -1.1990     4.2640 ca         1 32E      -0.062000
      3 C22          5.3720     0.0020     4.8580 ca         1 32E      -0.122000
      4 C30          1.3810     0.0000     0.0000 ca         1 32E      -0.138000
      5 C32         -0.6940     0.0060     1.1950 ca         1 32E      -0.177000
      6 C34          1.3770     0.0010     2.4020 ca         1 32E      -0.179000
      7 C24          4.3960    -1.2120     3.0280 ca         1 32E      -0.082600
      8 C21          5.0460     1.1980     4.2400 ca         1 32E      -0.183300
      9 C29          2.0750     0.0000     1.2030 ca         1 32E       0.213100
     10 C25          4.0670    -0.0000     2.4050 ca         1 32E       0.095100
     11 C26          4.3950     1.2010     3.0210 ca         1 32E       0.061900
     12 C33         -0.0060     0.0120     2.3960 ca         1 32E       0.036400
     13 C3           0.7350     5.9970     4.6250 cc         1 32E      -0.090400
     14 C2          -0.2200     6.4520     3.7860 cd         1 32E      -0.300400
     15 C8          -0.8770     5.5350     2.9290 c          1 32E       0.623700
     16 C5           0.4180     3.8050     3.8160 c          1 32E       0.580500
     17 C12          2.5870     2.5800     7.3970 c3         1 32E      -0.012400
     18 C11          1.4850     3.1340     6.4890 c3         1 32E      -0.067400
     19 C13          3.6970     1.9770     6.5340 c3         1 32E       0.124800
     20 C15          3.2160     3.5240     4.7320 c3         1 32E       0.096800
     21 C10          2.0910     4.1730     5.5410 c3         1 32E       0.020700
     22 C1          -0.5820     7.9140     3.7610 c3         1 32E       0.107100
     23 C19          8.0470     3.3860     7.5560 c3         1 32E       0.002900
     24 C20          7.5430     4.5410     5.3980 c3         1 32E       0.002900
     25 C17          6.5730     2.2850     5.8640 c3         1 32E      -0.035400
     26 C16          5.4040     2.5050     4.9010 c3         1 32E       0.194800
     27 N7          -0.5370     4.2320     2.9700 ns         1 32E      -0.122500
     28 N4           1.0540     4.6660     4.6310 n          1 32E       0.061000
     29 N14          4.2450     3.0110     5.6460 n3         1 32E      -0.530600
     30 O37          3.4860    -2.5010     1.3110 o          1 32E      -0.865800
     31 O38          4.3730    -3.6560     2.9870 o          1 32E      -0.865800
     32 O28          3.4330    -0.0010     1.2060 os         1 32E      -0.176200
     33 F27          4.0810     2.3720     2.4250 f          1 32E      -0.137900
     34 Cl          -0.8790     0.0200     3.8960 cl         1 32E      -0.068400
     35 H1          -0.5410    -0.0020    -0.9390 ha         1 32E       0.091000
     36 H2           5.3080    -2.1310     4.7510 ha         1 32E       0.139000
     37 H3           5.8810     0.0110     5.8140 ha         1 32E       0.107000
     38 H4           1.9230    -0.0030    -0.9380 ha         1 32E       0.113000
     39 H5          -1.7770     0.0110     1.1930 ha         1 32E       0.101000
     40 H6           1.9150     0.0030     3.3420 ha         1 32E       0.137000
     41 H7           1.1740     6.6630     5.3580 h4         1 32E       0.132000
     42 H8           2.9940     3.3820     8.0000 hc         1 32E       0.013700
     43 H9           2.1720     1.8120     8.0390 hc         1 32E       0.013700
     44 H10          0.7190     3.6020     7.0960 hc         1 32E       0.039700
     45 H11          1.0540     2.3250     5.9110 hc         1 32E       0.039700
     46 H12          4.4850     1.5990     7.1740 h1         1 32E       0.032200
     47 H13          3.2910     1.1690     5.9380 h1         1 32E       0.032200
     48 H14          3.6560     4.2620     4.0720 h1         1 32E       0.051700
     49 H15          2.8130     2.7050     4.1480 h1         1 32E       0.051700
     50 H16          2.4920     4.9960     6.1190 h1         1 32E       0.041700
     51 H17         -1.6220     8.0330     4.0400 hc         1 32E       0.005700
     52 H18          0.0440     8.4530     4.4620 hc         1 32E       0.005700
     53 H19         -0.4280     8.3070     2.7630 hc         1 32E       0.005700
     54 H20          7.6500     2.7300     8.3220 hc         1 32E      -0.000300
     55 H21          8.9180     2.9270     7.1050 hc         1 32E      -0.000300
     56 H22          8.3260     4.3330     8.0000 hc         1 32E      -0.000300
     57 H23          8.0350     5.3880     5.8600 hc         1 32E      -0.000300
     58 H24          8.2590     3.9860     4.8050 hc         1 32E      -0.000300
     59 H25          6.7410     4.8940     4.7600 hc         1 32E      -0.000300
     60 H26          6.2720     1.6000     6.6470 hc         1 32E       0.029200
     61 H27          7.4130     1.8680     5.3230 hc         1 32E       0.029200
     62 H28          5.6900     3.2260     4.1450 h1         1 32E       0.048700
     63 H29          6.1120     4.0900     6.9380 hc         1 32E       0.041700
     64 H30         -0.9980     3.5780     2.3680 hn         1 32E       0.211500
     65 C18          6.9790     3.6230     6.4860 c3         1 32E      -0.057700
     66 O9          -1.7420     5.9220     2.1640 o          1 32E      -0.677500
     67 C36          4.0540    -2.4930     2.3850 c          1 32E       0.964200
     68 O6           0.7180     2.6270     3.8370 o          1 32E      -0.678500
@<TRIPOS>BOND
     1     1     4 ar  
     2     1     5 ar  
     3     1    35 1   
     4     2     3 ar  
     5     2     7 ar  
     6     2    36 1   
     7     3     8 ar  
     8     3    37 1   
     9     4     9 ar  
    10     4    38 1   
    11     5    12 ar  
    12     5    39 1   
    13     6     9 ar  
    14     6    12 ar  
    15     6    40 1   
    16     7    10 ar  
    17     7    67 1   
    18     8    11 ar  
    19     8    26 1   
    20     9    32 1   
    21    10    11 ar  
    22    10    32 1   
    23    11    33 1   
    24    12    34 1   
    25    13    14 2   
    26    13    28 1   
    27    13    41 1   
    28    14    15 1   
    29    14    22 1   
    30    15    27 1   
    31    15    66 2   
    32    16    27 1   
    33    16    28 1   
    34    16    68 2   
    35    17    18 1   
    36    17    19 1   
    37    17    42 1   
    38    17    43 1   
    39    18    21 1   
    40    18    44 1   
    41    18    45 1   
    42    19    29 1   
    43    19    46 1   
    44    19    47 1   
    45    20    21 1   
    46    20    29 1   
    47    20    48 1   
    48    20    49 1   
    49    21    28 1   
    50    21    50 1   
    51    22    51 1   
    52    22    52 1   
    53    22    53 1   
    54    23    54 1   
    55    23    55 1   
    56    23    56 1   
    57    23    65 1   
    58    24    57 1   
    59    24    58 1   
    60    24    59 1   
    61    24    65 1   
    62    25    26 1   
    63    25    60 1   
    64    25    61 1   
    65    25    65 1   
    66    26    29 1   
    67    26    62 1   
    68    27    64 1   
    69    30    67 1   
    70    31    67 1   
    71    63    65 1   
@<TRIPOS>SUBSTRUCTURE
     1 32E         1 TEMP              0 ****  ****    0 ROOT
