@<TRIPOS>MOLECULE
32F
   33    35     1     0     0
SMALL
bcc


@<TRIPOS>ATOM
      1 O22          0.0000     0.0000     0.0000 o          1 32F      -0.877800
      2 C20          1.3420     0.0000     0.0000 c          1 32F       0.974600
      3 O21          1.9470     0.0000     1.0470 o          1 32F      -0.877800
      4 C18          2.0960    -0.0000    -1.3050 c3         1 32F       0.078400
      5 C8           6.9150     0.0030    -5.4890 cc         1 32F       0.405500
      6 N11          6.3580     0.0020    -6.7400 ns         1 32F      -0.018400
      7 C10          7.1450     0.0130    -7.8400 c          1 32F       0.623100
      8 O19          6.6670     0.0120    -8.9590 o          1 32F      -0.683500
      9 C12          8.6000     0.0250    -7.6330 ca         1 32F      -0.235600
     10 C17          9.4960     0.0360    -8.7010 ca         1 32F      -0.012000
     11 C16         10.8510     0.0480    -8.4490 ca         1 32F      -0.153000
     12 C15         11.3260     0.0480    -7.1440 ca         1 32F      -0.066000
     13 C14         10.4670     0.0360    -6.0820 ca         1 32F      -0.111000
     14 C13          9.0860     0.0250    -6.3060 ca         1 32F       0.181400
     15 N9           8.2080     0.0140    -5.2830 nd         1 32F      -0.573100
     16 C3           6.5480    -0.0010    -3.0270 ca         1 32F      -0.021500
     17 C2           5.7050    -0.0000    -1.9370 ca         1 32F      -0.202000
     18 C1           4.3280    -0.0000    -2.1220 ca         1 32F       0.208100
     19 C4           3.7940     0.0000    -3.4040 ca         1 32F      -0.202000
     20 O2           3.5010     0.0000    -1.0440 os         1 32F      -0.246900
     21 C5           6.0160    -0.0010    -4.3190 ca         1 32F      -0.261900
     22 C6           4.6300    -0.0020    -4.4990 ca         1 32F      -0.021500
     23 H181         1.8340     0.8840    -1.8730 h1         1 32F      -0.002300
     24 H182         1.8340    -0.8850    -1.8730 h1         1 32F      -0.002300
     25 H11          5.3630    -0.0060    -6.8410 hn         1 32F       0.193500
     26 H17          9.1300     0.0360    -9.7210 ha         1 32F       0.118000
     27 H16         11.5510     0.0570    -9.2760 ha         1 32F       0.101000
     28 H15         12.3950     0.0570    -6.9650 ha         1 32F       0.095000
     29 H14         10.8540     0.0360    -5.0700 ha         1 32F       0.118000
     30 H6           4.2140    -0.0010    -5.4990 ha         1 32F       0.103500
     31 H4           2.7200    -0.0000    -3.5440 ha         1 32F       0.131500
     32 H2           6.1170     0.0000    -0.9340 ha         1 32F       0.131500
     33 H3           7.6220    -0.0000    -2.8830 ha         1 32F       0.103500
@<TRIPOS>BOND
     1     1     2 1   
     2     2     3 1   
     3     2     4 1   
     4     4    20 1   
     5     4    23 1   
     6     4    24 1   
     7     5     6 1   
     8     5    15 2   
     9     5    21 1   
    10     6     7 1   
    11     6    25 1   
    12     7     8 2   
    13     7     9 1   
    14     9    10 ar  
    15     9    14 ar  
    16    10    11 ar  
    17    10    26 1   
    18    11    12 ar  
    19    11    27 1   
    20    12    13 ar  
    21    12    28 1   
    22    13    14 ar  
    23    13    29 1   
    24    14    15 1   
    25    16    17 ar  
    26    16    21 ar  
    27    16    33 1   
    28    17    18 ar  
    29    17    32 1   
    30    18    19 ar  
    31    18    20 1   
    32    19    22 ar  
    33    19    31 1   
    34    21    22 ar  
    35    22    30 1   
@<TRIPOS>SUBSTRUCTURE
     1 32F         1 TEMP              0 ****  ****    0 ROOT
