@<TRIPOS>MOLECULE
32G
   63    67     1     0     0
SMALL
bcc


@<TRIPOS>ATOM
      1 N1           0.0000     0.0000     0.0000 nb         1 32G      -0.659000
      2 C2           1.3200     0.0000     0.0000 ca         1 32G       0.640900
      3 N3           2.0270     0.0000     1.1100 nb         1 32G      -0.624000
      4 C4           1.4250     0.0010     2.2960 ca         1 32G       0.224800
      5 C5           0.0210     0.0000     2.3500 ca         1 32G      -0.186200
      6 C6          -0.6890    -0.0000     1.1360 ca         1 32G       0.604200
      7 N6          -2.0720     0.0010     1.1270 nv         1 32G      -0.645500
      8 N7          -0.3280     0.0010     3.6580 nc         1 32G      -0.482100
      9 C8           0.7450     0.0010     4.3930 cd         1 32G       0.254700
     10 N9           1.8530     0.0010     3.5990 na         1 32G       0.204000
     11 OAB         17.4910     9.0680     4.5450 o          1 32G      -0.725500
     12 CAE          8.2070     3.4160     4.3780 cc         1 32G      -0.447600
     13 CAF         12.7120     4.8300     5.6970 c3         1 32G      -0.028400
     14 CAG         11.2720     4.4170     6.0060 c3         1 32G      -0.029400
     15 CAH         13.2680     5.6540     6.8610 c3         1 32G      -0.033400
     16 CAI          5.2250     1.4370     4.5690 c3         1 32G      -0.039400
     17 CAJ          3.7710     1.4370     4.0920 c3         1 32G      -0.044400
     18 CAL         14.7080     6.0660     6.5520 c3         1 32G      -0.019400
     19 CAM          5.7490     2.8730     4.6060 c3         1 32G      -0.022700
     20 CAN          3.2470     0.0000     4.0550 c3         1 32G      -0.030700
     21 CAO         15.7880     9.3810     8.6390 c3         1 32G       0.086700
     22 NAS          8.8690     2.5280     6.2280 nd         1 32G      -0.312000
     23 NAT          7.5970     2.3620     6.1370 nc         1 32G      -0.377800
     24 NAU         17.3460     9.5040     6.7450 ns         1 32G      -0.212900
     25 NAV         16.9110     7.4380     5.9790 ns         1 32G      -0.217900
     26 SAW         14.3770     8.4950     7.8600 ss         1 32G      -0.396200
     27 CAX         17.2650     8.6950     5.6790 c          1 32G       0.623500
     28 CAY          9.2980     3.1860     5.1470 cd         1 32G       0.272600
     29 CBC         15.2630     6.8900     7.7150 c3         1 32G       0.067400
     30 NBD          7.1590     2.8780     5.0430 na         1 32G       0.582400
     31 CBF         17.0100     8.7390     7.9550 c3         1 32G       0.008700
     32 CBG         16.7140     7.3280     7.4320 c3         1 32G       0.009700
     33 H2           1.8420     0.0000    -0.9500 h5         1 32G      -0.000900
     34 HN6         -2.5730    -0.8650     1.1090 hn         1 32G       0.282800
     35 HN6A        -2.5720     0.8680     1.1080 hn         1 32G       0.282800
     36 H8           0.7570     0.0010     5.4770 h5         1 32G       0.033800
     37 HAE          8.2130     3.7220     3.3390 h4         1 32G       0.162000
     38 HAF         13.3200     3.9440     5.5600 hc         1 32G       0.014200
     39 HAFA        12.7310     5.4240     4.7920 hc         1 32G       0.014200
     40 HAG         11.2530     3.8230     6.9110 hc         1 32G       0.026200
     41 HAGA        10.6640     5.3040     6.1430 hc         1 32G       0.026200
     42 HAH         12.6600     6.5400     6.9980 hc         1 32G       0.027700
     43 HAHA        13.2480     5.0590     7.7660 hc         1 32G       0.027700
     44 HAI          5.8280     0.8500     3.8860 hc         1 32G       0.036700
     45 HAIA         5.2790     1.0060     5.5610 hc         1 32G       0.036700
     46 HAJ          3.1680     2.0230     4.7750 hc         1 32G       0.029700
     47 HAJA         3.7160     1.8670     3.1000 hc         1 32G       0.029700
     48 HAK         11.3240     2.7070     4.7040 hc         1 32G       0.019200
     49 HAKA        10.7350     4.1880     3.9370 hc         1 32G       0.019200
     50 HAL         15.3160     5.1800     6.4150 hc         1 32G       0.031200
     51 HALA        14.7270     6.6610     5.6470 hc         1 32G       0.031200
     52 HAM          5.6940     3.3040     3.6140 h1         1 32G       0.039700
     53 HAMA         5.1460     3.4600     5.2890 h1         1 32G       0.039700
     54 HAN          3.8500    -0.5860     3.3720 h1         1 32G       0.042700
     55 HANA         3.3020    -0.4310     5.0470 h1         1 32G       0.042700
     56 HAO         15.7400    10.4410     8.4210 h1         1 32G       0.055200
     57 HAOA        15.8090     9.2010     9.7070 h1         1 32G       0.055200
     58 HNAU        17.5950    10.4730     6.7210 hn         1 32G       0.214500
     59 HNAV        16.8010     6.6930     5.3190 hn         1 32G       0.221500
     60 HBC         15.2060     6.3380     8.6460 h1         1 32G       0.060700
     61 HBF         17.8550     8.7190     8.6330 h1         1 32G       0.037700
     62 HBG         17.4120     6.6150     7.8530 h1         1 32G       0.039700
     63 CAK         10.7160     3.5930     4.8420 c3         1 32G      -0.022700
@<TRIPOS>BOND
     1     1     2 ar  
     2     1     6 ar  
     3     2     3 ar  
     4     2    33 1   
     5     3     4 ar  
     6     4     5 ar  
     7     4    10 1   
     8     5     6 ar  
     9     5     8 1   
    10     6     7 1   
    11     7    34 1   
    12     7    35 1   
    13     8     9 2   
    14     9    10 1   
    15     9    36 1   
    16    10    20 1   
    17    11    27 2   
    18    12    28 2   
    19    12    30 1   
    20    12    37 1   
    21    13    14 1   
    22    13    15 1   
    23    13    38 1   
    24    13    39 1   
    25    14    40 1   
    26    14    41 1   
    27    14    63 1   
    28    15    18 1   
    29    15    42 1   
    30    15    43 1   
    31    16    17 1   
    32    16    19 1   
    33    16    44 1   
    34    16    45 1   
    35    17    20 1   
    36    17    46 1   
    37    17    47 1   
    38    18    29 1   
    39    18    50 1   
    40    18    51 1   
    41    19    30 1   
    42    19    52 1   
    43    19    53 1   
    44    20    54 1   
    45    20    55 1   
    46    21    26 1   
    47    21    31 1   
    48    21    56 1   
    49    21    57 1   
    50    22    23 2   
    51    22    28 1   
    52    23    30 1   
    53    24    27 1   
    54    24    31 1   
    55    24    58 1   
    56    25    27 1   
    57    25    32 1   
    58    25    59 1   
    59    26    29 1   
    60    28    63 1   
    61    29    32 1   
    62    29    60 1   
    63    31    32 1   
    64    31    61 1   
    65    32    62 1   
    66    48    63 1   
    67    49    63 1   
@<TRIPOS>SUBSTRUCTURE
     1 32G         1 TEMP              0 ****  ****    0 ROOT
