@<TRIPOS>MOLECULE
molecule
   63    67     1     0     0
SMALL
bcc


@<TRIPOS>ATOM
      1 N1           0.0000     0.0000     0.0000 nb         1 32G      -0.773000
      2 C2           1.3200     0.0000     0.0000 ca         1 32G       0.704900
      3 N3           2.0270     0.0000     1.1100 nb         1 32G      -0.758000
      4 C4           1.4250     0.0010     2.2960 ca         1 32G       0.437800
      5 C5           0.0210     0.0000     2.3500 ca         1 32G      -0.160200
      6 C6          -0.6890    -0.0000     1.1360 ca         1 32G       0.780200
      7 N6          -2.0720     0.0010     1.1270 nv         1 32G      -1.073500
      8 N7          -0.3280     0.0010     3.6580 nc         1 32G      -0.573100
      9 C8           0.7450     0.0010     4.3930 cd         1 32G       0.428700
     10 N9           1.8530     0.0010     3.5990 na         1 32G      -0.256000
     11 OAB         17.4910     9.0680     4.5450 o          1 32G      -0.680500
     12 CAE          8.2070     3.4160     4.3780 cc         1 32G      -0.289600
     13 CAF         12.7120     4.8300     5.6970 c3         1 32G      -0.083400
     14 CAG         11.2720     4.4170     6.0060 c3         1 32G      -0.077400
     15 CAH         13.2680     5.6540     6.8610 c3         1 32G      -0.082400
     16 CAI          5.2250     1.4370     4.5690 c3         1 32G      -0.100400
     17 CAJ          3.7710     1.4370     4.0920 c3         1 32G      -0.105400
     18 CAL         14.7080     6.0660     6.5520 c3         1 32G      -0.067400
     19 CAM          5.7490     2.8730     4.6060 c3         1 32G       0.065300
     20 CAN          3.2470     0.0000     4.0550 c3         1 32G       0.054300
     21 CAO         15.7880     9.3810     8.6390 c3         1 32G       0.011700
     22 NAS          8.8690     2.5280     6.2280 nd         1 32G      -0.363000
     23 NAT          7.5970     2.3620     6.1370 nc         1 32G      -0.208800
     24 NAU         17.3460     9.5040     6.7450 ns         1 32G      -0.596900
     25 NAV         16.9110     7.4380     5.9790 ns         1 32G      -0.595900
     26 SAW         14.3770     8.4950     7.8600 ss         1 32G      -0.344200
     27 CAX         17.2650     8.6950     5.6790 c          1 32G       0.820500
     28 CAY          9.2980     3.1860     5.1470 cd         1 32G       0.280600
     29 CBC         15.2630     6.8900     7.7150 c3         1 32G       0.028400
     30 NBD          7.1590     2.8780     5.0430 na         1 32G       0.121400
     31 CBF         17.0100     8.7390     7.9550 c3         1 32G       0.091700
     32 CBG         16.7140     7.3280     7.4320 c3         1 32G       0.092700
     33 H2           1.8420     0.0000    -0.9500 h5         1 32G       0.062100
     34 HN6         -2.5730    -0.8650     1.1090 hn         1 32G       0.445300
     35 HN6A        -2.5720     0.8680     1.1080 hn         1 32G       0.445300
     36 H8           0.7570     0.0010     5.4770 h5         1 32G       0.081800
     37 HAE          8.2130     3.7220     3.3390 h4         1 32G       0.181000
     38 HAF         13.3200     3.9440     5.5600 hc         1 32G       0.041200
     39 HAFA        12.7310     5.4240     4.7920 hc         1 32G       0.041200
     40 HAG         11.2530     3.8230     6.9110 hc         1 32G       0.054200
     41 HAGA        10.6640     5.3040     6.1430 hc         1 32G       0.054200
     42 HAH         12.6600     6.5400     6.9980 hc         1 32G       0.052200
     43 HAHA        13.2480     5.0590     7.7660 hc         1 32G       0.052200
     44 HAI          5.8280     0.8500     3.8860 hc         1 32G       0.066200
     45 HAIA         5.2790     1.0060     5.5610 hc         1 32G       0.066200
     46 HAJ          3.1680     2.0230     4.7750 hc         1 32G       0.059200
     47 HAJA         3.7160     1.8670     3.1000 hc         1 32G       0.059200
     48 HAK         11.3240     2.7070     4.7040 hc         1 32G       0.052200
     49 HAKA        10.7350     4.1880     3.9370 hc         1 32G       0.052200
     50 HAL         15.3160     5.1800     6.4150 hc         1 32G       0.056700
     51 HALA        14.7270     6.6610     5.6470 hc         1 32G       0.056700
     52 HAM          5.6940     3.3040     3.6140 h1         1 32G       0.070200
     53 HAMA         5.1460     3.4600     5.2890 h1         1 32G       0.070200
     54 HAN          3.8500    -0.5860     3.3720 h1         1 32G       0.071200
     55 HANA         3.3020    -0.4310     5.0470 h1         1 32G       0.071200
     56 HAO         15.7400    10.4410     8.4210 h1         1 32G       0.080200
     57 HAOA        15.8090     9.2010     9.7070 h1         1 32G       0.080200
     58 HNAU        17.5950    10.4730     6.7210 hn         1 32G       0.361500
     59 HNAV        16.8010     6.6930     5.3190 hn         1 32G       0.363500
     60 HBC         15.2060     6.3380     8.6460 h1         1 32G       0.078700
     61 HBF         17.8550     8.7190     8.6330 h1         1 32G       0.066700
     62 HBG         17.4120     6.6150     7.8530 h1         1 32G       0.067700
     63 CAK         10.7160     3.5930     4.8420 c3         1 32G      -0.090700
@<TRIPOS>BOND
     1     1     2 ar
     2     1     6 ar
     3     2     3 ar
     4     3     4 ar
     5     4     5 ar
     6     4    10 1
     7     5     6 ar
     8     5     8 1
     9     6     7 1
    10     8     9 2
    11     9    10 1
    12    10    20 1
    13    11    27 2
    14    12    28 2
    15    12    30 1
    16    13    14 1
    17    13    15 1
    18    14    63 1
    19    15    18 1
    20    16    17 1
    21    16    19 1
    22    17    20 1
    23    63    28 1
    24    18    29 1
    25    19    30 1
    26    21    26 1
    27    21    31 1
    28    22    23 2
    29    22    28 1
    30    23    30 1
    31    24    27 1
    32    24    31 1
    33    25    27 1
    34    25    32 1
    35    26    29 1
    36    29    32 1
    37    31    32 1
    38     2    33 1
    39     7    34 1
    40     7    35 1
    41     9    36 1
    42    12    37 1
    43    13    38 1
    44    13    39 1
    45    14    40 1
    46    14    41 1
    47    15    42 1
    48    15    43 1
    49    16    44 1
    50    16    45 1
    51    17    46 1
    52    17    47 1
    53    63    48 1
    54    63    49 1
    55    18    50 1
    56    18    51 1
    57    19    52 1
    58    19    53 1
    59    20    54 1
    60    20    55 1
    61    21    56 1
    62    21    57 1
    63    24    58 1
    64    25    59 1
    65    29    60 1
    66    31    61 1
    67    32    62 1
@<TRIPOS>SUBSTRUCTURE
     1 32G         1 TEMP              0 ****  ****    0 ROOT
