@<TRIPOS>MOLECULE
32H
   27    29     1     0     0
SMALL
bcc


@<TRIPOS>ATOM
      1 C4          0.0450   -0.5610   -0.0350 ca        1 32H     -0.106000
      2 N2         -3.0610    5.6250    3.1280 n1        1 32H     -0.353800
      3 C7         -0.8100   -0.0470    3.5870 cc        1 32H      0.069000
      4 C6         -0.0640   -0.0680    2.3340 ca        1 32H     -0.025000
      5 C9         -1.8050    2.3570    3.4630 cc        1 32H      0.324900
      6 C13        -0.8640   -1.1040    4.4760 cd        1 32H     -0.104000
      7 C8         -1.5810    1.0700    4.0540 cc        1 32H     -0.206800
      8 C1          1.2750    0.3420    2.3050 ca        1 32H     -0.098000
      9 C2          1.9940    0.3010    1.1120 ca        1 32H     -0.106000
     10 C3          1.3810   -0.1500   -0.0600 ca        1 32H     -0.016900
     11 C5         -0.6750   -0.5210    1.1580 ca        1 32H     -0.098000
     12 C10        -2.6000    3.2880    4.1110 cd        1 32H     -0.226900
     13 C11        -3.2250    2.9870    5.4010 c         1 32H      0.734700
     14 O1         -3.9510    3.7520    6.0560 o         1 32H     -0.602500
     15 N1         -2.9800    1.7050    5.9510 n         1 32H     -0.415100
     16 C12        -2.1950    0.7950    5.3060 cd        1 32H      0.109500
     17 S1         -1.8110   -0.7620    5.8290 ss        1 32H      0.065200
     18 BR1        -0.0490   -2.7350    4.3220 br        1 32H      0.005900
     19 C14        -2.8480    4.5680    3.5650 ch        1 32H      0.207500
     20 O2         -1.2020    2.5830    2.2660 oh        1 32H     -0.459100
     21 BR2         2.3470   -0.2050   -1.6630 br        1 32H     -0.083100
     22 H1         -0.4490   -0.9180   -0.9520 ha        1 32H      0.150000
     23 H2          1.7620    0.6970    3.2250 ha        1 32H      0.144000
     24 H3          3.0460    0.6270    1.1030 ha        1 32H      0.150000
     25 H4         -1.7260   -0.8450    1.1730 ha        1 32H      0.144000
     26 H5         -3.3960    1.4810    6.8290 hn        1 32H      0.346500
     27 H6         -1.4200    3.4810    1.9590 ho        1 32H      0.448000
@<TRIPOS>BOND
     1    1   10 ar
     2    1   11 ar
     3    1   22 1
     4    2   19 3
     5    3    4 1
     6    3    6 2
     7    3    7 1
     8    4    8 ar
     9    4   11 ar
    10    5    7 1
    11    5   12 2
    12    5   20 1
    13    6   17 1
    14    6   18 1
    15    7   16 2
    16    8    9 ar
    17    8   23 1
    18    9   10 ar
    19    9   24 1
    20   10   21 1
    21   11   25 1
    22   12   13 1
    23   12   19 1
    24   13   14 2
    25   13   15 1
    26   15   16 1
    27   15   26 1
    28   16   17 1
    29   20   27 1
@<TRIPOS>SUBSTRUCTURE
     1 32H         1 TEMP              0 ****  ****    0 ROOT
