@<TRIPOS>MOLECULE
32I
   56    58     1     0     0
SMALL
bcc


@<TRIPOS>ATOM
      1 N1           0.0000     0.0000     0.0000 nh         1 32I      -0.511300
      2 O1          -1.6030    -0.2130    -6.0220 o          1 32I      -0.610100
      3 N3          -2.9700    -1.8100    -5.3060 ns         1 32I      -0.063400
      4 C12         -3.4640    -2.0140    -6.5790 c2         1 32I       0.051800
      5 N5          -3.0140    -1.3040    -7.5730 n2         1 32I      -0.581100
      6 N4          -4.4310    -2.9670    -6.7960 nz         1 32I       0.188400
      7 C18         -1.4960    -0.6570    -3.7350 ca         1 32I       0.115500
      8 N8          -1.8760    -1.4540    -2.7370 nb         1 32I      -0.525000
      9 C8          -1.4020    -1.2570    -1.5170 cp         1 32I       0.371500
     10 C10         -1.8240    -2.1420    -0.4080 cp         1 32I      -0.487100
     11 C13         -0.8860    -2.6960     0.4640 ca         1 32I       0.548200
     12 C15         -3.1820    -2.4420    -0.2000 ca         1 32I       0.709600
     13 O3          -4.1330    -1.9270    -1.0140 os         1 32I      -0.435100
     14 C17         -5.4890    -2.2810    -0.7330 c3         1 32I       0.250700
     15 N7          -3.5150    -3.2400     0.8070 nb         1 32I      -0.722000
     16 C14         -2.5900    -3.7470     1.6050 ca         1 32I       0.891300
     17 N6          -1.3030    -3.4820     1.4430 nb         1 32I      -0.731000
     18 O2          -2.9700    -4.5570     2.6210 os         1 32I      -0.403100
     19 C16         -1.9370    -5.0810     3.4560 c3         1 32I       0.257700
     20 C9          -0.5880     0.3870    -3.4930 ca         1 32I       0.496900
     21 N2          -0.1890     1.2110    -4.5300 nv         1 32I      -0.625500
     22 N9          -0.1120     0.5830    -2.2690 nb         1 32I      -0.592000
     23 C7          -0.4940    -0.2050    -1.2740 ca         1 32I       0.455900
     24 C6           1.3980     0.0000     0.0000 c3         1 32I       0.145800
     25 C1           1.9700     0.0000     1.4350 c3         1 32I      -0.032400
     26 C5          -0.6190     1.1870     0.6230 c3         1 32I       0.145800
     27 C4          -0.6520     0.9670     2.1150 c3         1 32I      -0.032400
     28 C3           0.5640     1.6050     2.8090 c3         1 32I      -0.027900
     29 C2           1.8620     1.3910     2.0060 c3         1 32I      -0.027900
     30 H1          -3.3120    -2.3590    -4.5430 hn         1 32I       0.206500
     31 H2          -2.3110    -0.6100    -7.4170 hn         1 32I       0.456400
     32 H3          -4.6940    -2.9620    -7.7620 hn         1 32I       0.221800
     33 H4          -5.2320    -2.7660    -6.2320 hn         1 32I       0.221800
     34 H5           0.1400    -2.3480     0.4480 h4         1 32I       0.008100
     35 H6          -5.6020    -3.3570    -0.8020 h1         1 32I       0.005700
     36 H7          -5.7480    -1.9540     0.2660 h1         1 32I       0.005700
     37 H8          -6.1430    -1.8030    -1.4520 h1         1 32I       0.005700
     38 H9          -1.4040    -4.2630     3.9270 h1         1 32I       0.007367
     39 H10         -2.3750    -5.7130     4.2190 h1         1 32I       0.007367
     40 H11         -1.2480    -5.6630     2.8560 h1         1 32I       0.007367
     41 H12          0.6980     1.0680    -4.9700 hn         1 32I       0.295800
     42 H13         -0.7930     1.9430    -4.8480 hn         1 32I       0.295800
     43 H14          1.7500    -0.8840    -0.5180 h1         1 32I       0.021700
     44 H15          1.7500     0.8840    -0.5190 h1         1 32I       0.021700
     45 H16          3.0100    -0.3000     1.4090 hc         1 32I       0.027950
     46 H17          1.4030    -0.6880     2.0500 hc         1 32I       0.027950
     47 H18         -1.6280     1.3100     0.2500 h1         1 32I       0.021700
     48 H19         -0.0290     2.0670     0.3970 h1         1 32I       0.021700
     49 H20         -0.6540    -0.0980     2.3140 hc         1 32I       0.027950
     50 H21         -1.5570     1.4080     2.5150 hc         1 32I       0.027950
     51 H22          0.6800     1.1610     3.7900 hc         1 32I       0.018950
     52 H23          0.3880     2.6680     2.9160 hc         1 32I       0.018950
     53 H24          1.8900     2.1050     1.1920 hc         1 32I       0.018950
     54 H25          2.7080     1.5650     2.6600 hc         1 32I       0.018950
     55 H43         -4.0700    -3.8700    -6.5580 hn         1 32I       0.221800
     56 C11         -2.0230    -0.8750    -5.0930 c          1 32I       0.538600
@<TRIPOS>BOND
     1     1    23 1   
     2     1    24 1   
     3     1    26 1   
     4     2    56 2   
     5     3     4 1   
     6     3    30 1   
     7     3    56 1   
     8     4     5 2   
     9     4     6 1   
    10     5    31 1   
    11     6    32 1   
    12     6    33 1   
    13     6    55 1   
    14     7     8 ar  
    15     7    20 ar  
    16     7    56 1   
    17     8     9 ar  
    18     9    10 1   
    19     9    23 ar  
    20    10    11 ar  
    21    10    12 ar  
    22    11    17 ar  
    23    11    34 1   
    24    12    13 1   
    25    12    15 ar  
    26    13    14 1   
    27    14    35 1   
    28    14    36 1   
    29    14    37 1   
    30    15    16 ar  
    31    16    17 ar  
    32    16    18 1   
    33    18    19 1   
    34    19    38 1   
    35    19    39 1   
    36    19    40 1   
    37    20    21 1   
    38    20    22 ar  
    39    21    41 1   
    40    21    42 1   
    41    22    23 ar  
    42    24    25 1   
    43    24    43 1   
    44    24    44 1   
    45    25    29 1   
    46    25    45 1   
    47    25    46 1   
    48    26    27 1   
    49    26    47 1   
    50    26    48 1   
    51    27    28 1   
    52    27    49 1   
    53    27    50 1   
    54    28    29 1   
    55    28    51 1   
    56    28    52 1   
    57    29    53 1   
    58    29    54 1   
@<TRIPOS>SUBSTRUCTURE
     1 32I         1 TEMP              0 ****  ****    0 ROOT
