@<TRIPOS>MOLECULE
molecule
   56    58     1     0     0
SMALL
bcc


@<TRIPOS>ATOM
      1 N1           0.0000     0.0000     0.0000 nh         1 32I      -0.736300
      2 O1          -1.6030    -0.2130    -6.0220 o          1 32I      -0.487100
      3 N3          -2.9700    -1.8100    -5.3060 ns         1 32I      -0.469400
      4 C12         -3.4640    -2.0140    -6.5790 c2         1 32I       0.519800
      5 N5          -3.0140    -1.3040    -7.5730 n2         1 32I      -0.687100
      6 N4          -4.4310    -2.9670    -6.7960 nz         1 32I      -0.809600
      7 C18         -1.4960    -0.6570    -3.7350 ca         1 32I       0.176500
      8 N8          -1.8760    -1.4540    -2.7370 nb         1 32I      -0.640000
      9 C8          -1.4020    -1.2570    -1.5170 cp         1 32I       0.385500
     10 C10         -1.8240    -2.1420    -0.4080 cp         1 32I      -0.460100
     11 C13         -0.8860    -2.6960     0.4640 ca         1 32I       0.575200
     12 C15         -3.1820    -2.4420    -0.2000 ca         1 32I       0.743600
     13 O3          -4.1330    -1.9270    -1.0140 os         1 32I      -0.437100
     14 C17         -5.4890    -2.2810    -0.7330 c3         1 32I       0.128700
     15 N7          -3.5150    -3.2400     0.8070 nb         1 32I      -0.834000
     16 C14         -2.5900    -3.7470     1.6050 ca         1 32I       0.962300
     17 N6          -1.3030    -3.4820     1.4430 nb         1 32I      -0.833000
     18 O2          -2.9700    -4.5570     2.6210 os         1 32I      -0.407100
     19 C16         -1.9370    -5.0810     3.4560 c3         1 32I       0.138700
     20 C9          -0.5880     0.3870    -3.4930 ca         1 32I       0.659900
     21 N2          -0.1890     1.2110    -4.5300 nv         1 32I      -1.040500
     22 N9          -0.1120     0.5830    -2.2690 nb         1 32I      -0.721000
     23 C7          -0.4940    -0.2050    -1.2740 ca         1 32I       0.573900
     24 C6           1.3980     0.0000     0.0000 c3         1 32I       0.175800
     25 C1           1.9700     0.0000     1.4350 c3         1 32I      -0.082400
     26 C5          -0.6190     1.1870     0.6230 c3         1 32I       0.175800
     27 C4          -0.6520     0.9670     2.1150 c3         1 32I      -0.082400
     28 C3           0.5640     1.6050     2.8090 c3         1 32I      -0.083400
     29 C2           1.8620     1.3910     2.0060 c3         1 32I      -0.083400
     30 H1          -3.2980    -2.3720    -4.5460 hn         1 32I       0.361500
     31 H2          -3.3710    -1.4510    -8.4970 hn         1 32I       0.434400
     32 H3          -5.0720    -2.6410    -7.4920 hn         1 32I       0.467133
     33 H4          -4.0000    -3.8140    -7.1110 hn         1 32I       0.467133
     34 H5           0.1710    -2.6300     0.2350 h4         1 32I       0.046100
     35 H6          -5.5990    -3.3580    -0.7880 h1         1 32I       0.052700
     36 H7          -6.1420    -1.8140    -1.4600 h1         1 32I       0.052700
     37 H8          -5.7530    -1.9410     0.2610 h1         1 32I       0.052700
     38 H9          -2.3760    -5.6990     4.2290 h1         1 32I       0.056700
     39 H10         -1.2580    -5.6770     2.8590 h1         1 32I       0.056700
     40 H11         -1.3920    -4.2630     3.9130 h1         1 32I       0.056700
     41 H12         -0.8550     1.8090    -4.9780 hn         1 32I       0.456800
     42 H13          0.7680     1.2210    -4.8210 hn         1 32I       0.456800
     43 H14          1.7500    -0.8840    -0.5180 h1         1 32I       0.046950
     44 H15          1.7500     0.8840    -0.5190 h1         1 32I       0.046950
     45 H16          1.4030    -0.6880     2.0500 hc         1 32I       0.056450
     46 H17          3.0100    -0.3010     1.4090 hc         1 32I       0.056450
     47 H18         -1.6280     1.3100     0.2500 h1         1 32I       0.046950
     48 H19         -0.0290     2.0670     0.3970 h1         1 32I       0.046950
     49 H20         -1.5570     1.4080     2.5150 hc         1 32I       0.056450
     50 H21         -0.6530    -0.0980     2.3140 hc         1 32I       0.056450
     51 H22          0.3880     2.6680     2.9160 hc         1 32I       0.046450
     52 H23          0.6800     1.1610     3.7900 hc         1 32I       0.046450
     53 H24          1.8900     2.1050     1.1920 hc         1 32I       0.046450
     54 H25          2.7080     1.5650     2.6600 hc         1 32I       0.046450
     55 H43         -4.9230    -3.1440    -5.9430 hn         1 32I       0.467133
     56 C11         -2.0230    -0.8750    -5.0930 c          1 32I       0.591600
@<TRIPOS>BOND
     1    21    20 1   
     2     2    56 2   
     3     5     4 2   
     4    20    22 ar  
     5    20     7 ar  
     6    56     7 1   
     7    56     3 1   
     8    22    23 ar  
     9     7     8 ar  
    10     4     3 1   
    11     4     6 1   
    12    27    26 1   
    13    27    28 1   
    14    26     1 1   
    15    23     1 1   
    16    23     9 ar  
    17     8     9 ar  
    18    28    29 1   
    19     1    24 1   
    20     9    10 1   
    21    29    25 1   
    22    24    25 1   
    23    10    12 ar  
    24    10    11 ar  
    25    13    12 1   
    26    13    14 1   
    27    12    15 ar  
    28    11    17 ar  
    29    17    16 ar  
    30    15    16 ar  
    31    16    18 1   
    32    18    19 1   
    33     3    30 1   
    34     5    31 1   
    35     6    32 1   
    36     6    33 1   
    37    11    34 1   
    38    14    35 1   
    39    14    36 1   
    40    14    37 1   
    41    19    38 1   
    42    19    39 1   
    43    19    40 1   
    44    21    41 1   
    45    21    42 1   
    46    24    43 1   
    47    24    44 1   
    48    25    45 1   
    49    25    46 1   
    50    26    47 1   
    51    26    48 1   
    52    27    49 1   
    53    27    50 1   
    54    28    51 1   
    55    28    52 1   
    56    29    53 1   
    57    29    54 1   
    58    55     6 1   
@<TRIPOS>SUBSTRUCTURE
     1 32I         1 TEMP              0 ****  ****    0 ROOT
