@<TRIPOS>MOLECULE
molecule
   38    41     1     0     0
SMALL
bcc


@<TRIPOS>ATOM
      1 C4           0.0000     0.0000     0.0000 cc         1 32J      -0.195900
      2 N2          -1.2920     0.0290    -2.2180 n1         1 32J      -0.351800
      3 C7           0.5180    -0.0130     4.7390 cc         1 32J       0.047300
      4 C6          -0.4370    -0.0070     3.8100 cd         1 32J       0.021000
      5 C9          -2.4400     1.0960     4.8000 ca         1 32J      -0.098500
      6 C13         -2.6810    -1.0920     3.7990 ca         1 32J      -0.098500
      7 C20         -0.7240     0.0060    -1.2350 cg         1 32J       0.226500
      8 C8          -1.8800    -0.0010     4.1430 ca         1 32J      -0.032000
      9 C18         -8.3210    -0.2950     4.4630 ca         1 32J      -0.164000
     10 C16         -7.7810     0.3240     6.7180 ca         1 32J      -0.139000
     11 C19         -6.9740    -0.3010     4.1380 ca         1 32J       0.120100
     12 C1           0.0600    -0.0060     2.4350 cd         1 32J      -0.186800
     13 C2           1.4410    -0.0120     2.3780 cc         1 32J       0.155500
     14 N1           2.0900     0.0000     1.1600 ns         1 32J      -0.389100
     15 C3           1.4150     0.0000     0.0000 c          1 32J       0.721700
     16 C5          -0.6810     0.0010     1.2200 cd         1 32J       0.297900
     17 S1           2.1100    -0.0180     4.0060 ss         1 32J      -0.073800
     18 C10         -3.7810     1.0990     5.1140 ca         1 32J      -0.112000
     19 C11         -4.5790     0.0060     4.7760 cp         1 32J      -0.015000
     20 C12         -4.0200    -1.0900     4.1180 ca         1 32J      -0.112000
     21 C14         -6.0220     0.0090     5.1150 cp         1 32J      -0.063000
     22 C15         -6.4370     0.3220     6.4080 ca         1 32J      -0.102000
     23 C17         -8.7210     0.0220     5.7480 ca         1 32J      -0.109000
     24 O2          -2.0320     0.0060     1.2450 oh         1 32J      -0.478100
     25 O3           2.0220     0.0000    -1.0570 o          1 32J      -0.621500
     26 Cl1          0.2250    -0.0150     6.4490 cl         1 32J      -0.030400
     27 H1          -1.7980     1.8300     5.2720 ha         1 32J       0.134500
     28 H2          -2.2230    -2.0280     3.5050 ha         1 32J       0.134500
     29 H3          -9.0610    -0.5340     3.7090 ha         1 32J       0.141000
     30 H4          -8.1050     0.5680     7.7230 ha         1 32J       0.134000
     31 H5           3.0900    -0.0320     1.1230 hn         1 32J       0.347500
     32 H6          -4.2160     1.9500     5.6240 ha         1 32J       0.134000
     33 H7          -4.6410    -1.9360     3.8520 ha         1 32J       0.134000
     34 H8          -5.7050     0.5600     7.1700 ha         1 32J       0.138000
     35 H9          -9.7750     0.0270     6.0010 ha         1 32J       0.134000
     36 H10         -6.6830    -1.5340     2.7290 ho         1 32J       0.417000
     37 H11         -2.3600    -0.7030     0.7170 ho         1 32J       0.446000
     38 O1          -6.5800    -0.6080     2.8750 oh         1 32J      -0.512100
@<TRIPOS>BOND
     1    10    22 ar
     2    10    23 ar
     3    22    21 ar
     4    18     5 ar
     5    18    19 ar
     6     5     8 ar
     7    25    15 2
     8    23     9 ar
     9    17    13 1
    10    17     3 1
    11    14    15 1
    12    14    13 1
    13    15     1 1
    14    13    12 2
    15    26     3 1
    16     3     4 2
    17    21    19 1
    18    21    11 ar
    19    19    20 ar
    20    12     4 1
    21    12    16 1
    22     4     8 1
    23     8     6 ar
    24     1    16 2
    25     1     7 1
    26    16    24 1
    27     7     2 3
    28    20     6 ar
    29     9    11 ar
    30    11    38 1
    31     5    27 1
    32     6    28 1
    33     9    29 1
    34    10    30 1
    35    14    31 1
    36    18    32 1
    37    20    33 1
    38    22    34 1
    39    23    35 1
    40    38    36 1
    41    24    37 1
@<TRIPOS>SUBSTRUCTURE
     1 32J         1 TEMP              0 ****  ****    0 ROOT
