@<TRIPOS>MOLECULE
molecule
   60    63     1     0     0
SMALL
bcc


@<TRIPOS>ATOM
      1 C1           0.0000     0.0000     0.0000 c3         1 32K      -0.009900
      2 C2           1.5070     0.0000     0.0000 cc         1 32K      -0.298400
      3 C3           2.1920     0.0000     1.1650 cd         1 32K       0.045600
      4 N4           3.5590     0.0000     1.1460 n          1 32K      -0.356000
      5 C5           4.2290     0.0020    -0.0220 c          1 32K       0.806500
      6 O6           5.4450     0.0020    -0.0150 o          1 32K      -0.658500
      7 N7           3.5730     0.0020    -1.1960 ns         1 32K      -0.561500
      8 C8           2.2250    -0.0040    -1.2210 c          1 32K       0.711700
      9 O9           1.6300    -0.0040    -2.2830 o          1 32K      -0.634500
     10 C10          4.3020    -0.0000     2.4090 c3         1 32K       0.120700
     11 C11          5.1880    -1.2480     2.4810 c3         1 32K      -0.104400
     12 C12          6.0040    -1.2100     3.7750 c3         1 32K      -0.074400
     13 C13          6.8350     0.0740     3.8110 c3         1 32K       0.159800
     14 N14          5.9430     1.2380     3.7410 n3         1 32K      -0.711600
     15 C15          5.1830     1.2490     2.4850 c3         1 32K       0.143800
     16 C16          6.6940     2.4890     3.9120 c3         1 32K       0.227100
     17 C17          7.0500     2.6670     5.3650 ca         1 32K      -0.128300
     18 C18          8.3520     2.4510     5.7870 ca         1 32K      -0.145000
     19 C19          8.6900     2.6090     7.1140 ca         1 32K      -0.094000
     20 C20          7.7160     2.9910     8.0420 ca         1 32K      -0.090600
     21 C21          6.3990     3.2090     7.6160 ca         1 32K       0.085100
     22 C22          6.0760     3.0500     6.2710 ca         1 32K       0.092100
     23 O23          4.8000     3.2600     5.8490 os         1 32K      -0.340900
     24 C24          4.4940     4.5570     5.3330 c3         1 32K       0.130700
     25 O25          5.4460     3.5790     8.5080 os         1 32K      -0.194200
     26 C26          5.2550     4.9080     8.7230 ca         1 32K       0.210100
     27 C27          4.2920     5.3330     9.6270 ca         1 32K      -0.150000
     28 C28          4.1000     6.6830     9.8450 ca         1 32K      -0.096000
     29 C29          4.8660     7.6120     9.1650 ca         1 32K      -0.184000
     30 C30          5.8280     7.1900     8.2630 ca         1 32K       0.066400
     31 C31          6.0280     5.8390     8.0470 ca         1 32K      -0.206000
     32 Cl           6.7880     8.3570     7.4100 cl         1 32K      -0.140400
     33 C33          8.0730     3.1610     9.4620 c          1 32K       0.877200
     34 O34          9.3400     2.9490     9.8680 o          1 32K      -0.819300
     35 O35          7.2240     3.4930    10.2660 o          1 32K      -0.819300
     36 H1          -0.3610     0.9300    -0.4220 hc         1 32K       0.044367
     37 H2          -0.3610    -0.8300    -0.5950 hc         1 32K       0.044367
     38 H3          -0.3610    -0.1000     1.0160 hc         1 32K       0.044367
     39 H4           1.6630     0.1110     2.1040 h4         1 32K       0.170000
     40 H5           4.0870     0.0010    -2.0540 hn         1 32K       0.358500
     41 H6           3.6090    -0.0030     3.2420 h1         1 32K       0.085700
     42 H7           4.5640    -2.1340     2.4740 hc         1 32K       0.057200
     43 H8           5.8590    -1.2640     1.6310 hc         1 32K       0.057200
     44 H9           5.3340    -1.2290     4.6250 hc         1 32K       0.052200
     45 H10          6.6650    -2.0680     3.8090 hc         1 32K       0.052200
     46 H11          7.4010     0.1100     4.7340 h1         1 32K       0.045200
     47 H12          7.5130     0.0880     2.9660 h1         1 32K       0.045200
     48 H14          4.5570     2.1330     2.4500 h1         1 32K       0.051200
     49 H15          5.8710     1.2550     1.6480 h1         1 32K       0.051200
     50 H16          6.0860     3.3240     3.5850 h1         1 32K       0.033200
     51 H17          7.6010     2.4490     3.3210 h1         1 32K       0.033200
     52 H18          9.1090     2.1550     5.0710 ha         1 32K       0.115000
     53 H19          9.7090     2.4390     7.4380 ha         1 32K       0.166000
     54 H20          4.0470     4.4590     4.3510 h1         1 32K       0.028700
     55 H21          3.7980     5.0550     5.9970 h1         1 32K       0.028700
     56 H22          5.4040     5.1400     5.2590 h1         1 32K       0.028700
     57 H23          3.6900     4.6070    10.1600 ha         1 32K       0.144000
     58 H24          3.3480     7.0150    10.5500 ha         1 32K       0.123000
     59 H25          4.7110     8.6700     9.3370 ha         1 32K       0.126000
     60 H26          6.7800     5.5090     7.3410 ha         1 32K       0.156000
@<TRIPOS>BOND
     1     9     8 2
     2     7     8 1
     3     7     5 1
     4     8     2 1
     5     6     5 2
     6     5     4 1
     7     2     1 1
     8     2     3 2
     9    32    30 1
    10     4     3 1
    11     4    10 1
    12    30    29 ar
    13    30    31 ar
    14    29    28 ar
    15    10    15 1
    16    10    11 1
    17    31    26 ar
    18    28    27 ar
    19    15    14 1
    20    11    12 1
    21    24    23 1
    22    23    22 1
    23    26    27 ar
    24    26    25 1
    25    14    16 1
    26    14    13 1
    27    12    13 1
    28    25    21 1
    29    22    21 ar
    30    22    17 ar
    31    16    17 1
    32    21    20 ar
    33    17    18 ar
    34    20    33 1
    35    20    19 ar
    36    18    19 ar
    37    35    33 1
    38    33    34 1
    39     1    36 1
    40     1    37 1
    41     1    38 1
    42     3    39 1
    43     7    40 1
    44    10    41 1
    45    11    42 1
    46    11    43 1
    47    12    44 1
    48    12    45 1
    49    13    46 1
    50    13    47 1
    51    15    48 1
    52    15    49 1
    53    16    50 1
    54    16    51 1
    55    18    52 1
    56    19    53 1
    57    24    54 1
    58    24    55 1
    59    24    56 1
    60    27    57 1
    61    28    58 1
    62    29    59 1
    63    31    60 1
@<TRIPOS>SUBSTRUCTURE
     1 32K         1 TEMP              0 ****  ****    0 ROOT
