@<TRIPOS>MOLECULE
molecule
   69    68     1     0     0
SMALL
bcc


@<TRIPOS>ATOM
      1 CAA          0.0000     0.0000     0.0000 c3         1 32M      -0.092100
      2 CAC          1.5300     0.0000     0.0000 c3         1 32M      -0.084400
      3 CAE          2.0400     0.0000     1.4430 c3         1 32M      -0.081400
      4 CAF          3.5700    -0.0010     1.4430 c3         1 32M      -0.082400
      5 CAG          4.0800     0.0000     2.8860 c3         1 32M      -0.079400
      6 CAH          5.6090    -0.0010     2.8860 c3         1 32M      -0.081400
      7 CAI          6.1190    -0.0010     4.3290 c3         1 32M      -0.080400
      8 CAK          7.6490    -0.0010     4.3290 c3         1 32M       0.138400
      9 OAW          8.1250    -0.0000     5.6760 os         1 32M      -0.421600
     10 CAM          9.5490    -0.0010     5.7890 c3         1 32M       0.143400
     11 CAO          9.9430    -0.0010     7.2670 c3         1 32M       0.141400
     12 OAY          9.5160    -1.2220     7.8750 os         1 32M      -0.408600
     13 CAQ          9.8370    -1.3240     9.2630 c3         1 32M       0.141400
     14 CAS          9.3350    -2.6630     9.8060 c3         1 32M       0.141400
     15 OBA         10.0460    -3.7290     9.1740 os         1 32M      -0.410600
     16 CAU          9.6500    -5.0320     9.6120 c3         1 32M       0.141400
     17 CAT         10.4730    -6.0900     8.8730 c3         1 32M       0.141400
     18 OAZ         11.8480    -5.9670     9.2420 os         1 32M      -0.410600
     19 CAR         12.7070    -6.9140     8.6050 c3         1 32M       0.142400
     20 CAP         14.1470    -6.6920     9.0720 c3         1 32M       0.142400
     21 OAX         14.2440    -6.9740    10.4700 os         1 32M      -0.410600
     22 CAN         15.5550    -6.7970    11.0100 c3         1 32M       0.142400
     23 CAL         15.5400    -7.1260    12.5040 c3         1 32M       0.141400
     24 OAV         15.2420    -8.5110    12.6830 os         1 32M      -0.408600
     25 CAJ         15.2030    -8.9250    14.0510 c3         1 32M       0.141400
     26 CAD         14.8770   -10.4180    14.1230 c3         1 32M       0.143400
     27 OAB         15.9410   -11.1670    13.5310 oh         1 32M      -0.600800
     28 H1          -0.3610     0.0000    -1.0210 hc         1 32M       0.032367
     29 H2          -0.3610    -0.8850     0.5110 hc         1 32M       0.032367
     30 H3          -0.3610     0.8840     0.5110 hc         1 32M       0.032367
     31 H4           1.8910    -0.8850    -0.5110 hc         1 32M       0.039700
     32 H5           1.8910     0.8850    -0.5110 hc         1 32M       0.039700
     33 H6           1.6780    -0.8840     1.9540 hc         1 32M       0.041700
     34 H7           1.6790     0.8850     1.9530 hc         1 32M       0.041700
     35 H8           3.9300    -0.8860     0.9330 hc         1 32M       0.040700
     36 H9           3.9310     0.8830     0.9310 hc         1 32M       0.040700
     37 H10          3.7190     0.8850     3.3960 hc         1 32M       0.043200
     38 H11          3.7180    -0.8840     3.3970 hc         1 32M       0.043200
     39 H12          5.9710     0.8830     2.3750 hc         1 32M       0.040700
     40 H13          5.9700    -0.8860     2.3750 hc         1 32M       0.040700
     41 H14          5.7580    -0.8850     4.8390 hc         1 32M       0.053700
     42 H15          5.7580     0.8840     4.8390 hc         1 32M       0.053700
     43 H16          8.0100     0.8830     3.8170 h1         1 32M       0.020700
     44 H17          8.0100    -0.8860     3.8180 h1         1 32M       0.020700
     45 H18          9.9490    -0.8870     5.3090 h1         1 32M       0.031700
     46 H19          9.9510     0.8820     5.3080 h1         1 32M       0.031700
     47 H20         11.0190     0.0890     7.3550 h1         1 32M       0.030700
     48 H21          9.4690     0.8360     7.7670 h1         1 32M       0.030700
     49 H22         10.9110    -1.2630     9.3910 h1         1 32M       0.031200
     50 H23          9.3620    -0.5140     9.8040 h1         1 32M       0.031200
     51 H24          9.4990    -2.7040    10.8760 h1         1 32M       0.031700
     52 H25          8.2760    -2.7630     9.5990 h1         1 32M       0.031700
     53 H26          9.8210    -5.1210    10.6780 h1         1 32M       0.032200
     54 H27          8.5980    -5.1800     9.4010 h1         1 32M       0.032200
     55 H28         10.1140    -7.0770     9.1380 h1         1 32M       0.031700
     56 H29         10.3720    -5.9440     7.8040 h1         1 32M       0.031700
     57 H30         12.3940    -7.9180     8.8650 h1         1 32M       0.031700
     58 H31         12.6520    -6.7860     7.5310 h1         1 32M       0.031700
     59 H32         14.8100    -7.3510     8.5240 h1         1 32M       0.032200
     60 H33         14.4310    -5.6620     8.8910 h1         1 32M       0.032200
     61 H34         15.8670    -5.7690    10.8690 h1         1 32M       0.031700
     62 H35         16.2470    -7.4570    10.5020 h1         1 32M       0.031700
     63 H36         16.5110    -6.9070    12.9310 h1         1 32M       0.031700
     64 H37         14.7840    -6.5270    12.9980 h1         1 32M       0.031700
     65 H38         16.1670    -8.7430    14.5110 h1         1 32M       0.030200
     66 H39         14.4410    -8.3630    14.5770 h1         1 32M       0.030200
     67 H40         14.7610   -10.7120    15.1590 h1         1 32M       0.028700
     68 H41         13.9560   -10.6130    13.5870 h1         1 32M       0.028700
     69 H42         15.7690   -12.0890    13.6310 ho         1 32M       0.399000
@<TRIPOS>BOND
     1    27    26 1
     2    24    23 1
     3    24    25 1
     4    26    25 1
     5    23    22 1
     6    22    21 1
     7    21    20 1
     8    20    19 1
     9    19    18 1
    10    18    17 1
    11    17    16 1
    12    16    15 1
    13    15    14 1
    14    14    13 1
    15    12    13 1
    16    12    11 1
    17    11    10 1
    18    10     9 1
    19     8     9 1
    20     8     7 1
    21     7     6 1
    22     6     5 1
    23     5     4 1
    24     4     3 1
    25     3     2 1
    26     2     1 1
    27     1    28 1
    28     1    29 1
    29     1    30 1
    30     2    31 1
    31     2    32 1
    32     3    33 1
    33     3    34 1
    34     4    35 1
    35     4    36 1
    36     5    37 1
    37     5    38 1
    38     6    39 1
    39     6    40 1
    40     7    41 1
    41     7    42 1
    42     8    43 1
    43     8    44 1
    44    10    45 1
    45    10    46 1
    46    11    47 1
    47    11    48 1
    48    13    49 1
    49    13    50 1
    50    14    51 1
    51    14    52 1
    52    16    53 1
    53    16    54 1
    54    17    55 1
    55    17    56 1
    56    19    57 1
    57    19    58 1
    58    20    59 1
    59    20    60 1
    60    22    61 1
    61    22    62 1
    62    23    63 1
    63    23    64 1
    64    25    65 1
    65    25    66 1
    66    26    67 1
    67    26    68 1
    68    27    69 1
@<TRIPOS>SUBSTRUCTURE
     1 32M         1 TEMP              0 ****  ****    0 ROOT
