@<TRIPOS>MOLECULE
32M
   69    68     1     0     0
SMALL
bcc


@<TRIPOS>ATOM
      1 CAA        -0.9730    2.8520    0.3370 c3        1 32M     -0.093100
      2 CAC         0.1250    1.8280    0.2090 c3        1 32M     -0.080400
      3 CAE         1.1610    1.9860    1.3020 c3        1 32M     -0.079400
      4 CAF         2.2620    0.9560    1.1700 c3        1 32M     -0.079400
      5 CAG         3.2970    1.1150    2.2630 c3        1 32M     -0.078400
      6 CAH         4.3980    0.0850    2.1310 c3        1 32M     -0.078400
      7 CAI         5.4300    0.2470    3.2250 c3        1 32M     -0.083400
      8 CAK         6.5270   -0.7920    3.0780 c3        1 32M      0.132400
      9 OAW         7.4460   -0.5700    4.1460 os        1 32M     -0.428600
     10 CAM         8.5450   -1.4780    4.1090 c3        1 32M      0.126400
     11 CAO         9.3500   -1.2330    5.3810 c3        1 32M      0.127400
     12 OAY         9.1830   -2.3930    6.1940 os        1 32M     -0.429600
     13 CAQ         9.7480   -2.2280    7.4930 c3        1 32M      0.127400
     14 CAS         9.6520   -3.5840    8.1830 c3        1 32M      0.127400
     15 OBA        10.9770   -4.1100    8.2280 os        1 32M     -0.429600
     16 CAU        11.0080   -5.4550    8.7020 c3        1 32M      0.127400
     17 CAT        12.4800   -5.8220    8.8680 c3        1 32M      0.127400
     18 OAZ        12.7320   -5.8590   10.2710 os        1 32M     -0.429600
     19 CAR        14.1170   -6.0280   10.5660 c3        1 32M      0.127400
     20 CAP        14.2170   -6.2240   12.0750 c3        1 32M      0.127400
     21 OAX        14.5040   -7.6050   12.2860 os        1 32M     -0.428600
     22 CAN        14.4540   -7.9620   13.6650 c3        1 32M      0.127400
     23 CAL        14.9430   -9.4040   13.7570 c3        1 32M      0.128400
     24 OAV        16.2480   -9.3550   14.3310 os        1 32M     -0.438600
     25 CAJ        16.8960  -10.6250   14.3150 c3        1 32M      0.087400
     26 CAD        18.2390  -10.4250   15.0100 c3        1 32M      0.131400
     27 OAB        18.0760  -10.1180   16.3790 oh        1 32M     -0.600800
     28 H1         -0.5570    3.8870    0.2670 hc        1 32M      0.032700
     29 H2         -1.4940    2.7510    1.3190 hc        1 32M      0.032700
     30 H3         -1.7250    2.7190   -0.4780 hc        1 32M      0.032700
     31 H4         -0.3140    0.7970    0.2570 hc        1 32M      0.038700
     32 H5          0.6210    1.9290   -0.7920 hc        1 32M      0.038700
     33 H6          0.6680    1.8840    2.3040 hc        1 32M      0.039700
     34 H7          1.6030    3.0170    1.2550 hc        1 32M      0.039700
     35 H8          1.8210   -0.0750    1.2180 hc        1 32M      0.039200
     36 H9          2.7550    1.0580    0.1670 hc        1 32M      0.039200
     37 H10         3.7390    2.1450    2.2160 hc        1 32M      0.041700
     38 H11         2.8050    1.0120    3.2660 hc        1 32M      0.041700
     39 H12         4.8910    0.1880    1.1280 hc        1 32M      0.040200
     40 H13         3.9560   -0.9460    2.1780 hc        1 32M      0.040200
     41 H14         4.9490    0.1370    4.2320 hc        1 32M      0.054700
     42 H15         5.8820    1.2720    3.1830 hc        1 32M      0.054700
     43 H16         7.0580   -0.6810    2.0950 h1        1 32M      0.025700
     44 H17         6.1090   -1.8320    3.1510 h1        1 32M      0.025700
     45 H18         8.1740   -2.5370    4.0690 h1        1 32M      0.041700
     46 H19         9.1690   -1.2640    3.2020 h1        1 32M      0.041700
     47 H20         8.9750   -0.3230    5.9210 h1        1 32M      0.043200
     48 H21        10.4380   -1.1070    5.1400 h1        1 32M      0.043200
     49 H22         9.1550   -1.4600    8.0570 h1        1 32M      0.043700
     50 H23        10.8170   -1.8960    7.4120 h1        1 32M      0.043700
     51 H24         9.2680   -3.4650    9.2300 h1        1 32M      0.043700
     52 H25         8.9790   -4.2760    7.6100 h1        1 32M      0.043700
     53 H26        10.4650   -5.5350    9.6800 h1        1 32M      0.043200
     54 H27        10.5220   -6.1240    7.9440 h1        1 32M      0.043200
     55 H28        13.1380   -5.0590    8.3740 h1        1 32M      0.043700
     56 H29        12.6820   -6.8350    8.4310 h1        1 32M      0.043700
     57 H30        14.6760   -5.1070   10.2540 h1        1 32M      0.043700
     58 H31        14.5240   -6.9200   10.0200 h1        1 32M      0.043700
     59 H32        15.0550   -5.6070   12.4950 h1        1 32M      0.044200
     60 H33        13.2540   -5.9460   12.5780 h1        1 32M      0.044200
     61 H34        15.1110   -7.2800   14.2670 h1        1 32M      0.043200
     62 H35        13.3960   -7.8850   14.0290 h1        1 32M      0.043200
     63 H36        14.2710  -10.0050   14.4250 h1        1 32M      0.045200
     64 H37        14.9840   -9.8760   12.7390 h1        1 32M      0.045200
     65 H38        17.0460  -10.9630   13.2570 h1        1 32M      0.039200
     66 H39        16.2700  -11.3760   14.8670 h1        1 32M      0.039200
     67 H40        18.8230  -11.3820   14.9920 h1        1 32M      0.053200
     68 H41        18.8170   -9.6110   14.4980 h1        1 32M      0.053200
     69 H42        17.5180   -9.3310   16.4260 ho        1 32M      0.412000
@<TRIPOS>BOND
     1    1    2 1   
     2    1   28 1   
     3    1   29 1   
     4    1   30 1   
     5    2    3 1   
     6    2   31 1   
     7    2   32 1   
     8    3    4 1   
     9    3   33 1   
    10    3   34 1   
    11    4    5 1   
    12    4   35 1   
    13    4   36 1   
    14    5    6 1   
    15    5   37 1   
    16    5   38 1   
    17    6    7 1   
    18    6   39 1   
    19    6   40 1   
    20    7    8 1   
    21    7   41 1   
    22    7   42 1   
    23    8    9 1   
    24    8   43 1   
    25    8   44 1   
    26    9   10 1   
    27   10   11 1   
    28   10   45 1   
    29   10   46 1   
    30   11   12 1   
    31   11   47 1   
    32   11   48 1   
    33   12   13 1   
    34   13   14 1   
    35   13   49 1   
    36   13   50 1   
    37   14   15 1   
    38   14   51 1   
    39   14   52 1   
    40   15   16 1   
    41   16   17 1   
    42   16   53 1   
    43   16   54 1   
    44   17   18 1   
    45   17   55 1   
    46   17   56 1   
    47   18   19 1   
    48   19   20 1   
    49   19   57 1   
    50   19   58 1   
    51   20   21 1   
    52   20   59 1   
    53   20   60 1   
    54   21   22 1   
    55   22   23 1   
    56   22   61 1   
    57   22   62 1   
    58   23   24 1   
    59   23   63 1   
    60   23   64 1   
    61   24   25 1   
    62   25   26 1   
    63   25   65 1   
    64   25   66 1   
    65   26   27 1   
    66   26   67 1   
    67   26   68 1   
    68   27   69 1   
@<TRIPOS>SUBSTRUCTURE
     1 32M         1 TEMP              0 ****  ****    0 ROOT
