@<TRIPOS>MOLECULE
molecule
   75    77     1     0     0
SMALL
bcc


@<TRIPOS>ATOM
      1 C1           0.0000     0.0000     0.0000 ca         1 32P      -0.124000
      2 C2           1.3830     0.0000     0.0000 ca         1 32P      -0.114000
      3 C3           2.0750     0.0000     1.1970 ca         1 32P      -0.124000
      4 C4           1.3840    -0.0000     2.3940 ca         1 32P      -0.108500
      5 C5           0.0010    -0.0000     2.3940 ca         1 32P      -0.099300
      6 C6          -0.6910    -0.0040     1.1980 ca         1 32P      -0.108500
      7 S1          -1.0530     1.7100     4.2240 s6         1 32P       1.428500
      8 O1          -1.8080     1.5420     5.5340 os         1 32P      -0.439800
      9 O2          -2.0070     2.3520     3.3900 o          1 32P      -0.626800
     10 O3           0.1470     2.3510     4.6320 o          1 32P      -0.626800
     11 C7          -0.7510     0.0000     3.7000 c3         1 32P      -0.173300
     12 C8          -0.8760     1.4990     6.5220 ca         1 32P       0.107100
     13 C9          -0.4670     2.6710     7.1410 ca         1 32P      -0.165000
     14 C10          0.4840     2.6310     8.1500 ca         1 32P       0.122100
     15 C11          1.0280     1.4210     8.5440 ca         1 32P      -0.116000
     16 C12          0.6190     0.2390     7.9240 ca         1 32P      -0.092600
     17 C13         -0.3330     0.2850     6.9070 ca         1 32P      -0.118000
     18 O4           0.8810     3.7830     8.7520 os         1 32P      -0.257900
     19 C14          1.1990    -1.0550     8.3420 c          1 32P       0.674700
     20 C15          0.1500     4.8440     8.1370 c3         1 32P       0.041400
     21 C16          0.5470     6.1560     8.7640 c          1 32P       0.656100
     22 N1          -0.0180     7.3040     8.3390 ns         1 32P      -0.596900
     23 O5           1.3740     6.1800     9.6500 o          1 32P      -0.565100
     24 N2           2.1230    -1.0950     9.3210 ns         1 32P      -0.575900
     25 O6           0.8420    -2.0840     7.8010 o          1 32P      -0.601100
     26 C17          2.6980    -2.3780     9.7340 c3         1 32P       0.163000
     27 C18          1.8510    -2.9770    10.8590 c3         1 32P      -0.106100
     28 C19         -0.7960    12.1860     8.2660 c3         1 32P      -0.112400
     29 C20         -0.0130    11.0480     8.9250 c3         1 32P      -0.071400
     30 C21         -0.4160     9.7160     8.2890 c3         1 32P      -0.100400
     31 C22          0.3670     8.5790     8.9480 c3         1 32P       0.122000
     32 N3          -1.1450    14.6100     8.2690 nz         1 32P      -0.810600
     33 C23         -0.3930    13.5180     8.9030 c3         1 32P       0.090800
     34 C24          5.0460    -3.1670    10.0870 ca         1 32P      -0.097500
     35 C25          4.1060    -2.1630    10.2250 ca         1 32P      -0.113300
     36 C26          4.4580    -0.9610    10.8100 ca         1 32P      -0.097500
     37 C27          5.7470    -0.7650    11.2660 ca         1 32P      -0.160000
     38 C28          6.6900    -1.7700    11.1280 ca         1 32P       0.137900
     39 C29          6.3380    -2.9710    10.5370 ca         1 32P      -0.160000
     40 F1           7.9530    -1.5760    11.5670 f          1 32P      -0.136900
     41 H1          -0.5420    -0.0020    -0.9380 ha         1 32P       0.137500
     42 H2           1.9240     0.0020    -0.9380 ha         1 32P       0.135000
     43 H3           3.1580     0.0000     1.1960 ha         1 32P       0.137500
     44 H4           1.9250     0.0010     3.3320 ha         1 32P       0.139500
     45 H6          -1.7740    -0.0040     1.1990 ha         1 32P       0.139500
     46 H71         -0.1650    -0.5100     4.4550 h1         1 32P       0.113200
     47 H72         -1.6980    -0.5100     3.5710 h1         1 32P       0.113200
     48 H9          -0.8900     3.6190     6.8360 ha         1 32P       0.152000
     49 H11          1.7690     1.3920     9.3340 ha         1 32P       0.149000
     50 H13         -0.6530    -0.6300     6.4240 ha         1 32P       0.171000
     51 H151        -0.9120     4.6820     8.2790 h1         1 32P       0.068200
     52 H152         0.3730     4.8690     7.0770 h1         1 32P       0.068200
     53 HN1         -0.6940     7.2860     7.6010 hn         1 32P       0.314500
     54 HN2          2.4110    -0.2490     9.7720 hn         1 32P       0.319500
     55 H17          2.7090    -3.0570     8.8900 h1         1 32P       0.092700
     56 H181         2.4420    -3.0330    11.7660 hc         1 32P       0.048367
     57 H182         1.5280    -3.9720    10.5780 hc         1 32P       0.048367
     58 H183         0.9840    -2.3510    11.0310 hc         1 32P       0.048367
     59 H191        -0.5740    12.2110     7.2060 hc         1 32P       0.066700
     60 H192        -1.8570    12.0240     8.4090 hc         1 32P       0.066700
     61 H201        -0.2340    11.0240     9.9850 hc         1 32P       0.063200
     62 H202         1.0490    11.2100     8.7810 hc         1 32P       0.063200
     63 H211        -1.4780     9.5540     8.4320 hc         1 32P       0.054200
     64 H212        -0.1940     9.7400     7.2290 hc         1 32P       0.054200
     65 H221         1.4290     8.7410     8.8060 h1         1 32P       0.059700
     66 H222         0.1450     8.5540    10.0080 h1         1 32P       0.059700
     67 HN31        -0.9390    14.6330     7.2900 hn         1 32P       0.457800
     68 HN32        -0.8810    15.4810     8.6860 hn         1 32P       0.457800
     69 H231         0.6680    13.6800     8.7610 hx         1 32P       0.114700
     70 H232        -0.6160    13.4930     9.9630 hx         1 32P       0.114700
     71 H24          4.7700    -4.1070     9.6240 ha         1 32P       0.135000
     72 H26          3.7200    -0.1760    10.9190 ha         1 32P       0.135000
     73 H27          6.0220     0.1760    11.7270 ha         1 32P       0.149500
     74 H29          7.0750    -3.7580    10.4280 ha         1 32P       0.149500
     75 H33         -2.1250    14.4610     8.4010 hn         1 32P       0.457800
@<TRIPOS>BOND
     1     1     2 ar
     2     1     6 ar
     3     1    41 1
     4     2     3 ar
     5     2    42 1
     6     3     4 ar
     7     3    43 1
     8     4     5 ar
     9     4    44 1
    10     5     6 ar
    11     5    11 1
    12     6    45 1
    13     7     8 1
    14     7     9 2
    15     7    10 2
    16     7    11 1
    17     8    12 1
    18    11    46 1
    19    11    47 1
    20    12    13 ar
    21    12    17 ar
    22    13    14 ar
    23    13    48 1
    24    14    15 ar
    25    14    18 1
    26    15    16 ar
    27    15    49 1
    28    16    17 ar
    29    16    19 1
    30    17    50 1
    31    18    20 1
    32    19    24 1
    33    19    25 2
    34    20    21 1
    35    20    51 1
    36    20    52 1
    37    21    22 1
    38    21    23 2
    39    22    31 1
    40    22    53 1
    41    24    26 1
    42    24    54 1
    43    26    27 1
    44    26    35 1
    45    26    55 1
    46    27    56 1
    47    27    57 1
    48    27    58 1
    49    28    29 1
    50    28    33 1
    51    28    59 1
    52    28    60 1
    53    29    30 1
    54    29    61 1
    55    29    62 1
    56    30    31 1
    57    30    63 1
    58    30    64 1
    59    31    65 1
    60    31    66 1
    61    32    33 1
    62    32    67 1
    63    32    68 1
    64    33    69 1
    65    33    70 1
    66    34    35 ar
    67    34    39 ar
    68    34    71 1
    69    35    36 ar
    70    36    37 ar
    71    36    72 1
    72    37    38 ar
    73    37    73 1
    74    38    39 ar
    75    38    40 1
    76    39    74 1
    77    75    32 1
@<TRIPOS>SUBSTRUCTURE
     1 32P         1 TEMP              0 ****  ****    0 ROOT
