@<TRIPOS>MOLECULE
molecule
   54    55     1     0     0
SMALL
bcc


@<TRIPOS>ATOM
      1 P11          0.0000     0.0000     0.0000 p5         1 32Q       0.860400
      2 C1           2.3330    -1.2500    -0.7200 c3         1 32Q      -0.088400
      3 C3           1.8220     0.0000     0.0000 c3         1 32Q      -0.055700
      4 C6           1.8220    -1.2500    -2.1630 c3         1 32Q      -0.061100
      5 C8           2.3250    -2.4810    -2.8730 ca         1 32Q      -0.053300
      6 N10          2.3120     0.0000     1.3850 nz         1 32Q      -0.780600
      7 C11         -0.6080     1.4890     0.8580 c3         1 32Q      -0.228600
      8 O12         -0.5370    -0.0010    -1.5180 o          1 32Q      -0.706000
      9 C13         -2.1330     1.4280     0.9680 c3         1 32Q      -0.083700
     10 O13         -0.4940    -1.2080     0.6980 o          1 32Q      -0.706000
     11 C15         -2.7450     1.7330    -0.3740 c          1 32Q       0.892600
     12 C16         -2.6110     2.4580     1.9930 c3         1 32Q      -0.224100
     13 C17          1.5770    -3.6440    -2.8530 ca         1 32Q      -0.121000
     14 C18         -4.0980     2.3150     2.1920 ca         1 32Q       0.049700
     15 C19          2.0380    -4.7730    -3.5030 ca         1 32Q      -0.134000
     16 C20          3.2460    -4.7390    -4.1750 ca         1 32Q      -0.138000
     17 C21          3.9930    -3.5770    -4.1960 ca         1 32Q      -0.134000
     18 C22          3.5300    -2.4460    -3.5490 ca         1 32Q      -0.121000
     19 O23         -4.0800     1.7360    -0.5180 o          1 32Q      -0.811800
     20 O24         -2.0350     1.9740    -1.3220 o          1 32Q      -0.811800
     21 N24         -8.7740     2.8970     3.7390 nz         1 32Q      -0.812600
     22 C36         -4.5880     1.4620     3.1630 ca         1 32Q      -0.073000
     23 C37         -5.9510     1.3310     3.3470 ca         1 32Q      -0.126000
     24 C38         -6.8270     2.0520     2.5560 ca         1 32Q      -0.218300
     25 C39         -6.3380     2.9050     1.5850 ca         1 32Q      -0.126000
     26 C40         -4.9740     3.0400     1.4060 ca         1 32Q      -0.073000
     27 H11          1.9710    -2.1340    -0.2090 hc         1 32Q       0.040700
     28 H12          3.4160    -1.2500    -0.7200 hc         1 32Q       0.040700
     29 H31          2.1830     0.8840    -0.5110 hx         1 32Q       0.105700
     30 H61          2.1970    -0.2400    -2.2760 hc         1 32Q       0.108200
     31 H62          0.7390    -1.2410    -2.1670 hc         1 32Q       0.108200
     32 H101         1.7750    -0.6460     1.9290 hn         1 32Q       0.433467
     33 H102         3.2750    -0.2720     1.3990 hn         1 32Q       0.433467
     34 H111        -0.1760     1.5360     1.8510 hc         1 32Q       0.030700
     35 H112        -0.3210     2.3710     0.2980 hc         1 32Q       0.030700
     36 H131        -2.4320     0.4360     1.2850 hc         1 32Q       0.048700
     37 H161        -2.6730     1.4000     2.2140 hc         1 32Q       0.095200
     38 H162        -1.9750     2.8270     2.7880 hc         1 32Q       0.095200
     39 H171         0.6310    -3.6710    -2.3260 ha         1 32Q       0.138500
     40 H191         1.4530    -5.6840    -3.4880 ha         1 32Q       0.123500
     41 H201         3.6080    -5.6250    -4.6840 ha         1 32Q       0.121000
     42 H211         4.9380    -3.5500    -4.7240 ha         1 32Q       0.123500
     43 H221         4.1160    -1.5350    -3.5650 ha         1 32Q       0.138500
     44 H231        -8.8250     2.0720     1.8140 hx         1 32Q       0.101700
     45 H232        -8.5320     0.9110     3.1170 hx         1 32Q       0.101700
     46 H241        -9.7600     2.7970     3.8750 hn         1 32Q       0.441800
     47 H242        -8.5770     3.8090     3.3770 hn         1 32Q       0.441800
     48 H361        -3.9010     0.8970     3.7830 ha         1 32Q       0.160500
     49 H371        -6.3340     0.6630     4.1080 ha         1 32Q       0.111000
     50 H391        -7.0240     3.4730     0.9680 ha         1 32Q       0.111000
     51 H401        -4.5920     3.7080     0.6440 ha         1 32Q       0.160500
     52 C23         -8.3140     1.9090     2.7550 c3         1 32Q       0.160100
     53 H103         2.2190     0.9190     1.7720 hn         1 32Q       0.433467
     54 H243        -8.3020     2.7760     4.6130 hn         1 32Q       0.441800
@<TRIPOS>BOND
     1     1     3 1   
     2     1     7 1   
     3     1     8 1   
     4     1    10 1   
     5     2     3 1   
     6     2     4 1   
     7     3     6 1   
     8     4     5 1   
     9     5    13 ar  
    10     5    18 ar  
    11     7     9 1   
    12     9    11 1   
    13     9    12 1   
    14    11    19 1   
    15    11    20 1   
    16    12    14 1   
    17    13    15 ar  
    18    14    22 ar  
    19    14    26 ar  
    20    15    16 ar  
    21    16    17 ar  
    22    17    18 ar  
    23    52    21 1   
    24    52    24 1   
    25    22    23 ar  
    26    23    24 ar  
    27    24    25 ar  
    28    25    26 ar  
    29     2    27 1   
    30     2    28 1   
    31     3    29 1   
    32     4    30 1   
    33     4    31 1   
    34     6    32 1   
    35     6    33 1   
    36     7    34 1   
    37     7    35 1   
    38     9    36 1   
    39    12    37 1   
    40    12    38 1   
    41    13    39 1   
    42    15    40 1   
    43    16    41 1   
    44    17    42 1   
    45    18    43 1   
    46    52    44 1   
    47    52    45 1   
    48    21    46 1   
    49    21    47 1   
    50    22    48 1   
    51    23    49 1   
    52    25    50 1   
    53    26    51 1   
    54    53     6 1   
    55    54    21 1   
@<TRIPOS>SUBSTRUCTURE
     1 32Q         1 TEMP              0 ****  ****    0 ROOT
