@<TRIPOS>MOLECULE
32R
   54    55     1     0     0
SMALL
bcc


@<TRIPOS>ATOM
      1 P11          0.0000     0.0000     0.0000 p5         1 32R       0.329400
      2 C1           2.3330    -1.2490    -0.7220 c3         1 32R       0.007600
      3 C3           1.8230     0.0000     0.0000 c3         1 32R      -0.140700
      4 C6           1.8230    -1.2490    -2.1640 c3         1 32R      -0.048100
      5 C8           2.3250    -2.4800    -2.8750 ca         1 32R      -0.048300
      6 N10          2.3130     0.0000     1.3850 nz         1 32R       0.119400
      7 C11         -0.6080     1.4880     0.8590 c3         1 32R      -0.025600
      8 O12         -0.5360     0.0010    -1.5190 o          1 32R      -0.545500
      9 C13         -2.1320     1.4280     0.9690 c3         1 32R      -0.028700
     10 O13         -0.4930    -1.2080     0.6970 o          1 32R      -0.545500
     11 C15         -2.5190     0.4350     2.0340 c          1 32R       0.987600
     12 C16         -2.6720     2.8100     1.3390 c3         1 32R      -0.225100
     13 C17          1.5780    -3.6420    -2.8550 ca         1 32R      -0.101000
     14 C18         -4.1790     2.7800     1.3280 ca         1 32R       0.074700
     15 C19          2.0380    -4.7710    -3.5070 ca         1 32R      -0.106500
     16 C20          3.2460    -4.7370    -4.1790 ca         1 32R      -0.118000
     17 C21          3.9930    -3.5740    -4.1990 ca         1 32R      -0.106500
     18 C22          3.5300    -2.4440    -3.5510 ca         1 32R      -0.101000
     19 O23         -3.8150     0.2150     2.3070 o          1 32R      -0.882800
     20 O24         -1.6640    -0.1620     2.6430 o          1 32R      -0.882800
     21 N24         -8.9690     4.0240     1.6500 nz         1 32R       0.052400
     22 C36         -4.8730     2.4560     2.4780 ca         1 32R      -0.048000
     23 C37         -6.2550     2.4290     2.4680 ca         1 32R      -0.095500
     24 C38         -6.9430     2.7270     1.3060 ca         1 32R      -0.244300
     25 C39         -6.2490     3.0520     0.1550 ca         1 32R      -0.095500
     26 C40         -4.8670     3.0840     0.1670 ca         1 32R      -0.048000
     27 H11          1.9720    -2.1330    -0.2110 hc         1 32R       0.007700
     28 H12          3.4160    -1.2480    -0.7220 hc         1 32R       0.007700
     29 H31          2.1840     0.8850    -0.5110 hx         1 32R       0.073700
     30 H61          2.1980    -0.2390    -2.2760 hc         1 32R       0.083200
     31 H62          0.7400    -1.2400    -2.1680 hc         1 32R       0.083200
     32 H101         1.8240    -0.6960     1.9120 hn         1 32R       0.199133
     33 H102         2.1570     0.9000     1.7940 hn         1 32R       0.199133
     34 H111        -0.3200     2.3710     0.3000 hc         1 32R       0.007700
     35 H112        -0.1760     1.5340     1.8520 hc         1 32R       0.007700
     36 H131        -2.5510     1.1200     0.0180 hc         1 32R       0.036700
     37 H161        -2.8480     2.4040     0.3500 hc         1 32R       0.081200
     38 H162        -2.1310     3.7240     1.1240 hc         1 32R       0.081200
     39 H171         0.6310    -3.6690    -2.3290 ha         1 32R       0.112500
     40 H191         1.4520    -5.6820    -3.4910 ha         1 32R       0.097000
     41 H201         3.6070    -5.6220    -4.6880 ha         1 32R       0.096000
     42 H211         4.9380    -3.5460    -4.7270 ha         1 32R       0.097000
     43 H221         4.1150    -1.5330    -3.5660 ha         1 32R       0.112500
     44 H231        -8.7980     2.4260     0.3050 hx         1 32R       0.072700
     45 H232        -8.8020     1.9670     2.0130 hx         1 32R       0.072700
     46 H241        -8.6480     4.2740     2.5640 hn         1 32R       0.215133
     47 H242        -9.9700     4.0300     1.6340 hn         1 32R       0.215133
     48 H361        -4.3330     2.2230     3.3880 ha         1 32R       0.133500
     49 H371        -6.7990     2.1740     3.3690 ha         1 32R       0.088500
     50 H391        -6.7880     3.2900    -0.7540 ha         1 32R       0.088500
     51 H401        -4.3230     3.3390    -0.7340 ha         1 32R       0.133500
     52 C23         -8.4500     2.6970     1.2940 c3         1 32R       0.047100
     53 H103         3.2930    -0.2040     1.3920 hn         1 32R       0.199133
     54 H243        -8.6210     4.6830     0.9820 hn         1 32R       0.215133
@<TRIPOS>BOND
     1     1     3 1   
     2     1     7 1   
     3     1     8 1   
     4     1    10 1   
     5     2     3 1   
     6     2     4 1   
     7     2    27 1   
     8     2    28 1   
     9     3     6 1   
    10     3    29 1   
    11     4     5 1   
    12     4    30 1   
    13     4    31 1   
    14     5    13 ar  
    15     5    18 ar  
    16     6    32 1   
    17     6    33 1   
    18     6    53 1   
    19     7     9 1   
    20     7    34 1   
    21     7    35 1   
    22     9    11 1   
    23     9    12 1   
    24     9    36 1   
    25    11    19 1   
    26    11    20 1   
    27    12    14 1   
    28    12    37 1   
    29    12    38 1   
    30    13    15 ar  
    31    13    39 1   
    32    14    22 ar  
    33    14    26 ar  
    34    15    16 ar  
    35    15    40 1   
    36    16    17 ar  
    37    16    41 1   
    38    17    18 ar  
    39    17    42 1   
    40    18    43 1   
    41    21    46 1   
    42    21    47 1   
    43    21    52 1   
    44    21    54 1   
    45    22    23 ar  
    46    22    48 1   
    47    23    24 ar  
    48    23    49 1   
    49    24    25 ar  
    50    24    52 1   
    51    25    26 ar  
    52    25    50 1   
    53    26    51 1   
    54    44    52 1   
    55    45    52 1   
@<TRIPOS>SUBSTRUCTURE
     1 32R         1 TEMP              0 ****  ****    0 ROOT
