@<TRIPOS>MOLECULE
32V
   37    41     1     0     0
SMALL
bcc


@<TRIPOS>ATOM
      1 C1           0.0000     0.0000     0.0000 c2         1 32V      -0.411000
      2 C2           1.3980     0.0000    -2.3270 c2         1 32V      -0.033000
      3 N1           0.0350     0.0010    -2.3790 n          1 32V       0.179000
      4 N2           2.0450     0.0010    -1.1900 n2         1 32V      -0.172000
      5 C3           1.3890     0.0000     0.0000 c2         1 32V       0.046000
      6 C4          -0.6840     0.0010    -1.2380 c2         1 32V       0.291000
      7 S1          -0.5980     0.0070     1.6510 ss         1 32V       0.412000
      8 C5           1.9140     0.0000     1.3550 c2         1 32V       0.022000
      9 C6           0.9710     0.0090     2.3080 c2         1 32V      -0.275000
     10 N3           2.1110     0.0000    -3.5010 nu         1 32V      -0.205000
     11 C7           3.3160    -0.0010     1.6480 c1         1 32V      -0.117000
     12 C8           4.4620     0.0110     1.9030 c1         1 32V      -0.160000
     13 O1          -1.9030     0.0010    -1.2730 o          1 32V      -0.383000
     14 C9          -0.6480     0.0020    -3.6750 c3         1 32V      -0.200000
     15 C10          3.5760    -0.0000    -3.4680 DU         1 32V      -0.057000
     16 C11          4.1020    -1.4490    -3.4020 c3         1 32V      -0.147000
     17 C12          4.1330     0.6100    -4.7660 c3         1 32V      -0.101000
     18 C13         -0.8860    -1.4400    -4.1270 c3         1 32V      -0.058000
     19 C14          4.9770    -0.4890    -5.4430 c3         1 32V      -0.473000
     20 C15          4.4040    -1.8120    -4.8770 DU         1 32V      -0.045000
     21 H1           1.4080     0.2240     3.2750 h4         1 32V       0.163000
     22 H2           2.6660    -0.8290    -3.4140 DU         1 32V       0.209000
     23 H3           5.5090    -0.2500     1.9940 ha         1 32V       0.196000
     24 H4          -0.7070     1.0600    -3.9000 h1         1 32V       0.109500
     25 H5           0.1520    -0.3780    -4.2980 h1         1 32V       0.109500
     26 H6           3.9330     0.5610    -2.6130 ha         1 32V       0.099000
     27 H7           3.2450    -2.0740    -3.6200 hc         1 32V       0.097500
     28 H8           4.9520    -1.7180    -2.7860 hc         1 32V       0.097500
     29 H9           4.9190     1.3550    -4.8000 hc         1 32V       0.081000
     30 H10          3.1930     1.1470    -4.7960 hc         1 32V       0.081000
     31 H11         -0.6830    -1.7590    -5.1420 hc         1 32V       0.050667
     32 H12         -0.1240    -2.0690    -3.6840 hc         1 32V       0.050667
     33 H13         -1.8110    -1.6020    -3.5860 hc         1 32V       0.050667
     34 H14          4.4970    -1.4470    -5.6000 DU         1 32V       0.126000
     35 H15          5.7420     0.1170    -5.9140 hc         1 32V       0.203000
     36 H16          3.7770    -2.5930    -5.2870 ha         1 32V       0.080000
     37 H17          5.4320    -1.9950    -5.1650 ha         1 32V       0.080000
@<TRIPOS>BOND
     1     1     5 1   
     2     1     6 1   
     3     1     7 1   
     4     2     3 1   
     5     2     4 1   
     6     2    10 1   
     7     3     6 1   
     8     3    14 1   
     9     4     5 1   
    10     5     8 1   
    11     6    13 1   
    12     7     9 1   
    13     8     9 1   
    14     8    11 1   
    15     9    21 1   
    16    10    15 1   
    17    10    22 1   
    18    11    12 1   
    19    12    23 1   
    20    14    18 1   
    21    14    24 1   
    22    14    25 1   
    23    15    16 1   
    24    15    17 1   
    25    15    22 1   
    26    15    26 1   
    27    16    20 1   
    28    16    27 1   
    29    16    28 1   
    30    17    19 1   
    31    17    29 1   
    32    17    30 1   
    33    18    31 1   
    34    18    32 1   
    35    18    33 1   
    36    19    20 1   
    37    19    34 1   
    38    19    35 1   
    39    20    34 1   
    40    20    36 1   
    41    20    37 1   
@<TRIPOS>SUBSTRUCTURE
     1 32V         1 TEMP              0 ****  ****    0 ROOT
