@<TRIPOS>MOLECULE
32W
   51    54     1     0     0
SMALL
bcc


@<TRIPOS>ATOM
      1 O1           0.0000     0.0000     0.0000 o          1 32W      -0.656100
      2 C3           1.2160     0.0000     0.0000 c          1 32W       0.598700
      3 N            1.8900     0.0000     1.1680 ns         1 32W      -0.196900
      4 C2           1.1560    -0.0000     2.4360 c3         1 32W       0.049000
      5 C1           2.1500     0.0010     3.6000 c3         1 32W       0.195400
      6 O            2.8930     1.2210     3.5910 os         1 32W      -0.420600
      7 C            3.8540     1.3230     4.6440 c3         1 32W       0.255700
      8 C4           1.9540    -0.0070    -1.2780 ca         1 32W      -0.176600
      9 C22          1.2570    -0.0130    -2.4890 ca         1 32W      -0.037500
     10 C21          1.9490    -0.0190    -3.6790 ca         1 32W      -0.136500
     11 C7           3.3410    -0.0210    -3.6760 ca         1 32W       0.018600
     12 C6           4.0380    -0.0140    -2.4720 ca         1 32W      -0.136500
     13 C5           3.3520    -0.0020    -1.2780 ca         1 32W      -0.037500
     14 N1           4.0370    -0.0280    -4.8820 nu         1 32W      -0.281300
     15 C8           3.5270     0.6430    -5.9810 ca         1 32W       0.701900
     16 N3           4.1490     0.5280    -7.1370 nb         1 32W      -0.692000
     17 C15          3.6840     1.1620    -8.2210 ca         1 32W       0.454600
     18 C10          2.5130     1.9550    -8.0950 ca         1 32W      -0.330600
     19 C9           1.8940     2.0380    -6.8330 ca         1 32W       0.509200
     20 N2           2.4230     1.3730    -5.8280 nb         1 32W      -0.664000
     21 C14          4.3220     1.0620    -9.4670 ca         1 32W      -0.167300
     22 C13          3.8160     1.7230   -10.5410 ca         1 32W      -0.056000
     23 C12          2.6590     2.5090   -10.4280 cp         1 32W      -0.066000
     24 C11          2.0070     2.6280    -9.2130 ca         1 32W      -0.033000
     25 C16          2.1310     3.2190   -11.6190 cp         1 32W       0.006000
     26 C20          2.7700     3.1150   -12.8570 ca         1 32W      -0.226300
     27 C19          2.2460     3.7920   -13.9400 ca         1 32W       0.411200
     28 N4           1.1570     4.5260   -13.8160 nb         1 32W      -0.586000
     29 C18          0.5240     4.6500   -12.6660 ca         1 32W       0.411200
     30 C17          0.9770     4.0040   -11.5340 ca         1 32W      -0.226300
     31 H            2.8900    -0.0360     1.1690 hn         1 32W       0.184500
     32 H21C         0.5330     0.8840     2.4930 h1         1 32W       0.033200
     33 H22C         0.5340    -0.8850     2.4930 h1         1 32W       0.033200
     34 H11C         1.6110    -0.0880     4.5350 h1         1 32W      -0.003800
     35 H12C         2.8300    -0.8360     3.4940 h1         1 32W      -0.003800
     36 HC1          4.3790     2.2670     4.5630 h1         1 32W      -0.011967
     37 HC2          4.5630     0.5080     4.5660 h1         1 32W      -0.011967
     38 HC3          3.3490     1.2720     5.6010 h1         1 32W      -0.011967
     39 H22          0.1740    -0.0120    -2.4910 ha         1 32W       0.114500
     40 H5           3.8950     0.0040    -0.3410 ha         1 32W       0.114500
     41 H21          1.4090    -0.0240    -4.6190 ha         1 32W       0.122000
     42 H6           5.1210    -0.0120    -2.4740 ha         1 32W       0.122000
     43 H1           4.9000    -0.5280    -4.9580 hn         1 32W       0.295800
     44 H14          5.2160     0.4600    -9.5720 ha         1 32W       0.122000
     45 H9           0.9960     2.6280    -6.6950 h4         1 32W      -0.012900
     46 H11          1.1140     3.2360    -9.1280 ha         1 32W       0.116000
     47 H13          4.3140     1.6410   -11.5000 ha         1 32W       0.112000
     48 H20          3.6650     2.5140   -12.9660 ha         1 32W       0.119500
     49 H17          0.4520     4.1090   -10.5930 ha         1 32W       0.119500
     50 H19          2.7340     3.7180   -14.9040 h4         1 32W      -0.020400
     51 H18         -0.3680     5.2620   -12.6100 h4         1 32W      -0.020400
@<TRIPOS>BOND
     1     1     2 2   
     2     2     3 1   
     3     2     8 1   
     4     3     4 1   
     5     3    31 1   
     6     4     5 1   
     7     4    32 1   
     8     4    33 1   
     9     5     6 1   
    10     5    34 1   
    11     5    35 1   
    12     6     7 1   
    13     7    36 1   
    14     7    37 1   
    15     7    38 1   
    16     8     9 ar  
    17     8    13 ar  
    18     9    10 ar  
    19     9    39 1   
    20    10    11 ar  
    21    10    41 1   
    22    11    12 ar  
    23    11    14 1   
    24    12    13 ar  
    25    12    42 1   
    26    13    40 1   
    27    14    15 1   
    28    14    43 1   
    29    15    16 ar  
    30    15    20 ar  
    31    16    17 ar  
    32    17    18 ar  
    33    17    21 ar  
    34    18    19 ar  
    35    18    24 ar  
    36    19    20 ar  
    37    19    45 1   
    38    21    22 ar  
    39    21    44 1   
    40    22    23 ar  
    41    22    47 1   
    42    23    24 ar  
    43    23    25 1   
    44    24    46 1   
    45    25    26 ar  
    46    25    30 ar  
    47    26    27 ar  
    48    26    48 1   
    49    27    28 ar  
    50    27    50 1   
    51    28    29 ar  
    52    29    30 ar  
    53    29    51 1   
    54    30    49 1   
@<TRIPOS>SUBSTRUCTURE
     1 32W         1 TEMP              0 ****  ****    0 ROOT
