@<TRIPOS>MOLECULE
32X
   20    20     1     0     0
SMALL
bcc


@<TRIPOS>ATOM
      1 C10        -2.0420    0.7850    3.2630 c1        1 32X      0.517800
      2 C11         1.8400   -0.2810   -0.5170 c3        1 32X     -0.035900
      3 C12         2.1720   -0.0910    0.9060 ce        1 32X     -0.180200
      4 C02         3.4470   -0.2820    1.4180 c2        1 32X      0.125800
      5 C03         3.7950    0.0150    2.8840 c3        1 32X     -0.029000
      6 C04         2.8580    1.0650    3.4110 c2        1 32X     -0.185300
      7 C05         1.6410    0.9010    2.9250 c1        1 32X      0.010200
      8 C06         1.1320    0.2290    1.8870 ce        1 32X     -0.134300
      9 C07        -0.2380   -0.2990    1.7670 c         1 32X      0.692300
     10 O08        -0.5660   -1.2130    1.0000 o         1 32X     -0.519100
     11 N09        -1.2080    0.2930    2.5780 n1        1 32X     -0.713800
     12 H1          2.0470   -1.3340   -0.8380 hc        1 32X      0.045033
     13 H2          0.7560   -0.0780   -0.7040 hc        1 32X      0.045033
     14 H3          2.4460    0.4090   -1.1590 hc        1 32X      0.045033
     15 H4          4.2490   -1.1670   -0.2260 hn        1 32X      0.408800
     16 H5          5.2730   -1.1100    1.1030 hn        1 32X      0.408800
     17 H6          3.7500   -0.9460    3.4600 hc        1 32X      0.079700
     18 H7          4.8370    0.4240    2.9640 hc        1 32X      0.079700
     19 H8          3.2310    1.8880    4.0240 ha        1 32X      0.164000
     20 N01         4.4960   -0.7160    0.6260 nh        1 32X     -0.823600
@<TRIPOS>BOND
     1    1   11 3
     2    2    3 1
     3    2   12 1
     4    2   13 1
     5    2   14 1
     6    3    4 2
     7    3    8 1
     8    4    5 1
     9    4   20 1
    10    5    6 1
    11    5   17 1
    12    5   18 1
    13    6    7 2
    14    6   19 1
    15    7    8 2
    16    8    9 1
    17    9   10 2
    18    9   11 1
    19   15   20 1
    20   16   20 1
@<TRIPOS>SUBSTRUCTURE
     1 32X         1 TEMP              0 ****  ****    0 ROOT
