@<TRIPOS>MOLECULE
32Y
   19    20     1     0     0
SMALL
bcc


@<TRIPOS>ATOM
      1 C10          0.0000     0.0000     0.0000 cc         1 32Y       0.017800
      2 C11          1.4660     0.0000     0.0000 ca         1 32Y      -0.152800
      3 C12          2.1850     0.0000     1.2000 ca         1 32Y       0.232900
      4 C02          3.5690    -0.0000     1.1660 ca         1 32Y       0.018600
      5 C03          4.2390    -0.0000    -0.0550 ca         1 32Y      -0.058000
      6 C04          3.5370    -0.0000    -1.2420 ca         1 32Y      -0.124000
      7 C05          2.1490     0.0010    -1.2290 ca         1 32Y       0.169100
      8 O06          1.4500     0.0010    -2.3850 os         1 32Y      -0.273200
      9 C07          0.1080     0.0000    -2.3930 c          1 32Y       0.785800
     10 O08         -0.4790     0.0000    -3.4600 o          1 32Y      -0.621500
     11 C09         -0.6410     0.0000    -1.1970 cd         1 32Y      -0.253200
     12 I13          1.1750     0.0000     3.0350 i          1 32Y      -0.256900
     13 H1          -0.5570     0.0000     0.9290 ha         1 32Y       0.125000
     14 H2           4.5590     0.8650     2.7870 hn         1 32Y       0.279800
     15 H3           4.5580    -0.8680     2.7860 hn         1 32Y       0.279800
     16 H4           5.3220    -0.0000    -0.0720 ha         1 32Y       0.116000
     17 H5           4.0700    -0.0000    -2.1850 ha         1 32Y       0.125000
     18 H6          -1.7230    -0.0010    -1.2340 ha         1 32Y       0.141000
     19 N01          4.2950    -0.0010     2.3610 nv         1 32Y      -0.549200
@<TRIPOS>BOND
     1     1     2 1   
     2     1    11 2   
     3     1    13 1   
     4     2     3 ar  
     5     2     7 ar  
     6     3     4 ar  
     7     3    12 1   
     8     4     5 ar  
     9     4    19 1   
    10     5     6 ar  
    11     5    16 1   
    12     6     7 ar  
    13     6    17 1   
    14     7     8 1   
    15     8     9 1   
    16     9    10 2   
    17     9    11 1   
    18    11    18 1   
    19    14    19 1   
    20    15    19 1   
@<TRIPOS>SUBSTRUCTURE
     1 32Y         1 TEMP              0 ****  ****    0 ROOT
