@<TRIPOS>MOLECULE
molecule
   19    20     1     0     0
SMALL
bcc


@<TRIPOS>ATOM
      1 C10          0.0000     0.0000     0.0000 cc         1 32Y      -0.034200
      2 C11          1.4660     0.0000     0.0000 ca         1 32Y      -0.130800
      3 C12          2.1850     0.0000     1.2000 ca         1 32Y       0.083900
      4 C02          3.5690    -0.0000     1.1660 ca         1 32Y       0.168600
      5 C03          4.2390    -0.0000    -0.0550 ca         1 32Y      -0.100000
      6 C04          3.5370    -0.0000    -1.2420 ca         1 32Y      -0.129000
      7 C05          2.1490     0.0010    -1.2290 ca         1 32Y       0.157100
      8 O06          1.4500     0.0010    -2.3850 os         1 32Y      -0.304200
      9 C07          0.1080     0.0000    -2.3930 c          1 32Y       0.734800
     10 O08         -0.4790     0.0000    -3.4600 o          1 32Y      -0.573500
     11 C09         -0.6410     0.0000    -1.1970 cd         1 32Y      -0.261200
     12 I13          1.1750     0.0000     3.0350 i          1 32Y      -0.146900
     13 H1          -0.5570     0.0000     0.9290 ha         1 32Y       0.163000
     14 H2           4.5590     0.8650     2.7870 hn         1 32Y       0.437800
     15 H3           4.5580    -0.8680     2.7860 hn         1 32Y       0.437800
     16 H4           5.3220    -0.0000    -0.0720 ha         1 32Y       0.152000
     17 H5           4.0700    -0.0000    -2.1850 ha         1 32Y       0.158000
     18 H6          -1.7230    -0.0010    -1.2340 ha         1 32Y       0.173000
     19 N01          4.2950    -0.0010     2.3610 nv         1 32Y      -0.985200
@<TRIPOS>BOND
     1    19     4 1
     2     4     5 ar
     3     4     3 ar
     4    12     3 1
     5     5     6 ar
     6     3     2 ar
     7     6     7 ar
     8     2     7 ar
     9     2     1 1
    10     7     8 1
    11     1    11 2
    12     8     9 1
    13    11     9 1
    14     9    10 2
    15     1    13 1
    16    19    14 1
    17    19    15 1
    18     5    16 1
    19     6    17 1
    20    11    18 1
@<TRIPOS>SUBSTRUCTURE
     1 32Y         1 TEMP              0 ****  ****    0 ROOT
