@<TRIPOS>MOLECULE
32Z
   48    50     1     0     0
SMALL
bcc


@<TRIPOS>ATOM
      1 O01          0.0000     0.0000     0.0000 o          1 32Z      -0.682500
      2 C02          1.2160     0.0000     0.0000 c          1 32Z       0.641100
      3 N03          1.8990     0.0000     1.1620 ns         1 32Z      -0.193900
      4 C04          3.3570     0.0610     1.1820 c3         1 32Z       0.047000
      5 C05          3.9560    -0.7590     0.0400 c3         1 32Z       0.024900
      6 C06          3.3110    -0.3700    -1.2640 ca         1 32Z      -0.107300
      7 C07          4.0330    -0.3760    -2.4430 ca         1 32Z       0.147100
      8 O08          5.3430    -0.7360    -2.4390 os         1 32Z      -0.307900
      9 C09          6.0240    -0.7190    -3.6940 c3         1 32Z       0.202400
     10 C10          7.4790    -1.1510    -3.4910 c3         1 32Z      -0.033400
     11 C11          8.2080    -1.1330    -4.8350 c3         1 32Z      -0.033400
     12 C12          9.6620    -1.5640    -4.6330 c3         1 32Z       0.154800
     13 N13         10.3630    -1.5480    -5.9230 n3         1 32Z      -0.539600
     14 C14         11.6850    -2.1770    -5.8130 c3         1 32Z       0.150800
     15 C15         12.3230    -2.2730    -7.2010 c3         1 32Z      -0.023900
     16 C16         12.4550    -0.8660    -7.7940 c3         1 32Z      -0.026400
     17 C17         11.0710    -0.2140    -7.8530 c3         1 32Z      -0.023900
     18 C18         10.4680    -0.1790    -6.4470 c3         1 32Z       0.150800
     19 C19          3.4140    -0.0150    -3.6330 ca         1 32Z      -0.186000
     20 C20          2.0810     0.3520    -3.6440 ca         1 32Z      -0.074000
     21 C21          1.3520     0.3640    -2.4710 ca         1 32Z      -0.073000
     22 C22          1.9650    -0.0050    -1.2750 ca         1 32Z      -0.112600
     23 H031         1.3970    -0.0430     2.0270 hn         1 32Z       0.183500
     24 H041         3.6590     1.0940     1.0570 h1         1 32Z       0.017700
     25 H042         3.7060    -0.3510     2.1210 h1         1 32Z       0.017700
     26 H051         3.7590    -1.8080     0.2260 hc         1 32Z       0.035200
     27 H052         5.0170    -0.5480    -0.0200 hc         1 32Z       0.035200
     28 H091         5.5370    -1.4030    -4.3790 h1         1 32Z       0.003700
     29 H092         5.9990     0.2830    -4.1050 h1         1 32Z       0.003700
     30 H102         7.5040    -2.1520    -3.0790 hc         1 32Z       0.023200
     31 H101         7.9660    -0.4670    -2.8070 hc         1 32Z       0.023200
     32 H111         8.1830    -0.1310    -5.2470 hc         1 32Z       0.024700
     33 H112         7.7210    -1.8170    -5.5190 hc         1 32Z       0.024700
     34 H122        10.1490    -0.8810    -3.9480 h1         1 32Z       0.009200
     35 H121         9.6870    -2.5660    -4.2210 h1         1 32Z       0.009200
     36 H141        11.5760    -3.1720    -5.3990 h1         1 32Z       0.009200
     37 H142        12.3160    -1.5780    -5.1680 h1         1 32Z       0.009200
     38 H151        13.3050    -2.7210    -7.1150 hc         1 32Z       0.018950
     39 H152        11.6970    -2.8790    -7.8450 hc         1 32Z       0.018950
     40 H161        13.1090    -0.2710    -7.1690 hc         1 32Z       0.012700
     41 H162        12.8650    -0.9340    -8.7950 hc         1 32Z       0.012700
     42 H172        10.4280    -0.7910    -8.5060 hc         1 32Z       0.018950
     43 H171        11.1650     0.7970    -8.2300 hc         1 32Z       0.018950
     44 H181        11.1070     0.4070    -5.7960 h1         1 32Z       0.009200
     45 H182         9.4820     0.2670    -6.4890 h1         1 32Z       0.009200
     46 H191         3.9780    -0.0210    -4.5580 ha         1 32Z       0.120000
     47 H201         1.6070     0.6330    -4.5770 ha         1 32Z       0.105000
     48 H211         0.3080     0.6510    -2.4820 ha         1 32Z       0.127000
@<TRIPOS>BOND
     1     1     2 2   
     2     2     3 1   
     3     2    22 1   
     4     3     4 1   
     5     3    23 1   
     6     4     5 1   
     7     4    24 1   
     8     4    25 1   
     9     5     6 1   
    10     5    26 1   
    11     5    27 1   
    12     6     7 ar  
    13     6    22 ar  
    14     7     8 1   
    15     7    19 ar  
    16     8     9 1   
    17     9    10 1   
    18     9    28 1   
    19     9    29 1   
    20    10    11 1   
    21    10    30 1   
    22    10    31 1   
    23    11    12 1   
    24    11    32 1   
    25    11    33 1   
    26    12    13 1   
    27    12    34 1   
    28    12    35 1   
    29    13    14 1   
    30    13    18 1   
    31    14    15 1   
    32    14    36 1   
    33    14    37 1   
    34    15    16 1   
    35    15    38 1   
    36    15    39 1   
    37    16    17 1   
    38    16    40 1   
    39    16    41 1   
    40    17    18 1   
    41    17    42 1   
    42    17    43 1   
    43    18    44 1   
    44    18    45 1   
    45    19    20 ar  
    46    19    46 1   
    47    20    21 ar  
    48    20    47 1   
    49    21    22 ar  
    50    21    48 1   
@<TRIPOS>SUBSTRUCTURE
     1 32Z         1 TEMP              0 ****  ****    0 ROOT
