@<TRIPOS>MOLECULE
molecule
   48    50     1     0     0
SMALL
bcc


@<TRIPOS>ATOM
      1 O01          0.0000     0.0000     0.0000 o          1 32Z      -0.641500
      2 C02          1.2160     0.0000     0.0000 c          1 32Z       0.719100
      3 N03          1.8990     0.0000     1.1620 ns         1 32Z      -0.583900
      4 C04          3.3570     0.0610     1.1820 c3         1 32Z       0.105000
      5 C05          3.9560    -0.7590     0.0400 c3         1 32Z      -0.047100
      6 C06          3.3110    -0.3700    -1.2640 ca         1 32Z      -0.089300
      7 C07          4.0330    -0.3760    -2.4430 ca         1 32Z       0.135100
      8 O08          5.3430    -0.7360    -2.4390 os         1 32Z      -0.333900
      9 C09          6.0240    -0.7190    -3.6940 c3         1 32Z       0.138400
     10 C10          7.4790    -1.1510    -3.4910 c3         1 32Z      -0.083400
     11 C11          8.2080    -1.1330    -4.8350 c3         1 32Z      -0.081400
     12 C12          9.6620    -1.5640    -4.6330 c3         1 32Z       0.165800
     13 N13         10.3630    -1.5480    -5.9230 n3         1 32Z      -0.730600
     14 C14         11.6850    -2.1770    -5.8130 c3         1 32Z       0.163300
     15 C15         12.3230    -2.2730    -7.2010 c3         1 32Z      -0.078400
     16 C16         12.4550    -0.8660    -7.7940 c3         1 32Z      -0.082400
     17 C17         11.0710    -0.2140    -7.8530 c3         1 32Z      -0.078400
     18 C18         10.4680    -0.1790    -6.4470 c3         1 32Z       0.163300
     19 C19          3.4140    -0.0150    -3.6330 ca         1 32Z      -0.197000
     20 C20          2.0810     0.3520    -3.6440 ca         1 32Z      -0.106000
     21 C21          1.3520     0.3640    -2.4710 ca         1 32Z      -0.103000
     22 C22          1.9650    -0.0050    -1.2750 ca         1 32Z      -0.109600
     23 H031         1.3970    -0.0430     2.0270 hn         1 32Z       0.328500
     24 H041         3.6590     1.0940     1.0570 h1         1 32Z       0.047700
     25 H042         3.7060    -0.3510     2.1210 h1         1 32Z       0.047700
     26 H051         3.7590    -1.8080     0.2260 hc         1 32Z       0.069700
     27 H052         5.0170    -0.5480    -0.0200 hc         1 32Z       0.069700
     28 H091         5.5370    -1.4030    -4.3790 h1         1 32Z       0.037200
     29 H092         5.9990     0.2830    -4.1050 h1         1 32Z       0.037200
     30 H102         7.5040    -2.1520    -3.0790 hc         1 32Z       0.055200
     31 H101         7.9660    -0.4670    -2.8070 hc         1 32Z       0.055200
     32 H111         8.1830    -0.1310    -5.2470 hc         1 32Z       0.051700
     33 H112         7.7210    -1.8170    -5.5190 hc         1 32Z       0.051700
     34 H122        10.1490    -0.8810    -3.9480 h1         1 32Z       0.034200
     35 H121         9.6870    -2.5660    -4.2210 h1         1 32Z       0.034200
     36 H141        11.5760    -3.1720    -5.3990 h1         1 32Z       0.032950
     37 H142        12.3160    -1.5780    -5.1680 h1         1 32Z       0.032950
     38 H151        13.3050    -2.7210    -7.1150 hc         1 32Z       0.048450
     39 H152        11.6970    -2.8790    -7.8450 hc         1 32Z       0.048450
     40 H161        13.1090    -0.2710    -7.1690 hc         1 32Z       0.040200
     41 H162        12.8650    -0.9340    -8.7950 hc         1 32Z       0.040200
     42 H172        10.4280    -0.7910    -8.5060 hc         1 32Z       0.048450
     43 H171        11.1650     0.7970    -8.2300 hc         1 32Z       0.048450
     44 H181        11.1070     0.4070    -5.7960 h1         1 32Z       0.032950
     45 H182         9.4820     0.2670    -6.4890 h1         1 32Z       0.032950
     46 H191         3.9780    -0.0210    -4.5580 ha         1 32Z       0.137000
     47 H201         1.6070     0.6330    -4.5770 ha         1 32Z       0.136000
     48 H211         0.3080     0.6510    -2.4820 ha         1 32Z       0.156000
@<TRIPOS>BOND
     1     1     2 2
     2     2     3 1
     3     2    22 1
     4     3     4 1
     5    21    22 ar
     6    21    20 ar
     7    22     6 ar
     8     4     5 1
     9     5     6 1
    10     6     7 ar
    11    20    19 ar
    12    17    18 1
    13    17    16 1
    14     7    19 ar
    15     7     8 1
    16    18    13 1
    17     9     8 1
    18     9    10 1
    19    16    15 1
    20    11    10 1
    21    11    12 1
    22    13    14 1
    23    13    12 1
    24    15    14 1
    25     3    23 1
    26     4    24 1
    27     4    25 1
    28     5    26 1
    29     5    27 1
    30     9    28 1
    31     9    29 1
    32    10    30 1
    33    10    31 1
    34    11    32 1
    35    11    33 1
    36    12    34 1
    37    12    35 1
    38    14    36 1
    39    14    37 1
    40    15    38 1
    41    15    39 1
    42    16    40 1
    43    16    41 1
    44    17    42 1
    45    17    43 1
    46    18    44 1
    47    18    45 1
    48    19    46 1
    49    20    47 1
    50    21    48 1
@<TRIPOS>SUBSTRUCTURE
     1 32Z         1 TEMP              0 ****  ****    0 ROOT
