@<TRIPOS>MOLECULE
molecule
   51    55     1     0     0
SMALL
bcc


@<TRIPOS>ATOM
      1 C1           0.0000     0.0000     0.0000 ca         1 330      -0.145000
      2 C2           1.3980     0.0000     0.0000 cp         1 330       0.064000
      3 C3           2.0420     0.0000     1.2170 ca         1 330      -0.167600
      4 C4           1.3610    -0.0010     2.4330 ca         1 330      -0.095600
      5 C5           2.3630    -0.0010     3.4970 c          1 330       0.735100
      6 C6           3.4770    -0.0010     1.4950 c          1 330       0.734100
      7 C7           2.1060     0.0010    -1.2610 cp         1 330      -0.069000
      8 C8           2.4590    -1.1970    -1.8880 ca         1 330       0.137100
      9 C9           3.1440    -1.1750    -3.1020 ca         1 330      -0.145000
     10 C10          3.4770     0.0440    -3.6940 ca         1 330      -0.109000
     11 C11          3.1240     1.2410    -3.0710 ca         1 330      -0.136000
     12 C12          2.4400     1.2190    -1.8550 ca         1 330      -0.094000
     13 C13         -0.0380    -0.0010     2.4810 cp         1 330      -0.017000
     14 C14         -0.6850    -0.0000     1.2350 ca         1 330       0.010800
     15 C15         -1.0600     0.0000     3.4880 cp         1 330      -0.080000
     16 C16         -2.2920    -0.0000     2.8270 ca         1 330       0.000800
     17 C17         -1.0740     0.0010     4.9010 ca         1 330      -0.074000
     18 C18         -3.5210     0.0010     3.5000 ca         1 330      -0.155000
     19 C19         -2.2940     0.0020     5.5870 ca         1 330       0.064100
     20 C20         -3.5000     0.0020     4.8950 ca         1 330      -0.107000
     21 C22         -3.4910    -1.4000     0.0120 c3         1 330      -0.112400
     22 C23         -4.6070    -1.3900    -1.0260 c3         1 330       0.149400
     23 O1           2.1390    -0.0020     4.6920 o          1 330      -0.574500
     24 N1           3.5830    -0.0010     2.8630 ns         1 330      -0.607500
     25 O2           4.3670     0.0020     0.6660 o          1 330      -0.556500
     26 O3          -2.2980     0.0040     6.9510 oh         1 330      -0.515100
     27 O5           2.1490    -2.4030    -1.3310 os         1 330      -0.349900
     28 C24          0.8930    -2.9750    -1.6880 c3         1 330       0.136700
     29 N2          -2.0370    -0.0000     1.4790 na         1 330      -0.068300
     30 O4          -4.9160    -2.7330    -1.3760 oh         1 330      -0.604800
     31 H1          -0.5420     0.1850    -0.9200 ha         1 330       0.145000
     32 H9           3.4170    -2.1050    -3.5870 ha         1 330       0.144000
     33 H10          4.0080     0.0610    -4.6380 ha         1 330       0.134000
     34 H11          3.3820     2.1870    -3.5300 ha         1 330       0.134000
     35 H12          2.1670     2.1490    -1.3720 ha         1 330       0.136000
     36 H17         -0.1410     0.0010     5.4520 ha         1 330       0.171000
     37 H18         -4.4570     0.0010     2.9550 ha         1 330       0.139000
     38 H20         -4.4340     0.0030     5.4440 ha         1 330       0.144000
     39 H211        -3.9250     0.5290     0.8230 h1         1 330       0.056200
     40 H212        -2.6750     0.5280    -0.4160 h1         1 330       0.056200
     41 H221        -2.6340    -1.9140    -0.4050 hc         1 330       0.066200
     42 H222        -3.8330    -1.9450     0.8830 hc         1 330       0.066200
     43 H231        -4.2790    -0.8500    -1.9060 h1         1 330       0.019700
     44 H232        -5.4850    -0.9100    -0.6110 h1         1 330       0.019700
     45 HN1          4.4580    -0.0020     3.3490 hn         1 330       0.343500
     46 HO3         -2.2720     0.8920     7.2640 ho         1 330       0.416000
     47 H241         0.2740    -2.2220    -2.1600 h1         1 330       0.035033
     48 H242         0.3980    -3.3450    -0.7980 h1         1 330       0.035033
     49 H243         1.0530    -3.7950    -2.3790 h1         1 330       0.035033
     50 HO4         -5.6050    -2.7390    -2.0200 ho         1 330       0.408000
     51 C21         -3.0570    -0.0010     0.4490 c3         1 330       0.049300
@<TRIPOS>BOND
     1     1    14 ar  
     2     1     2 ar  
     3     1    31 1   
     4     2     3 ar  
     5     2     7 1   
     6     3     4 ar  
     7     3     6 1   
     8     4    13 ar  
     9     4     5 1   
    10     5    23 2   
    11     5    24 1   
    12     6    24 1   
    13     6    25 2   
    14     7    12 ar  
    15     7     8 ar  
    16     8    27 1   
    17     8     9 ar  
    18     9    10 ar  
    19     9    32 1   
    20    10    11 ar  
    21    10    33 1   
    22    11    12 ar  
    23    11    34 1   
    24    12    35 1   
    25    13    15 1   
    26    13    14 ar  
    27    14    29 1   
    28    15    16 ar  
    29    15    17 ar  
    30    16    18 ar  
    31    16    29 1   
    32    17    19 ar  
    33    17    36 1   
    34    18    20 ar  
    35    18    37 1   
    36    19    20 ar  
    37    19    26 1   
    38    20    38 1   
    39    51    21 1   
    40    51    29 1   
    41    51    39 1   
    42    51    40 1   
    43    21    22 1   
    44    21    41 1   
    45    21    42 1   
    46    22    30 1   
    47    22    43 1   
    48    22    44 1   
    49    24    45 1   
    50    26    46 1   
    51    27    28 1   
    52    28    47 1   
    53    28    48 1   
    54    28    49 1   
    55    30    50 1   
@<TRIPOS>SUBSTRUCTURE
     1 330         1 TEMP              0 ****  ****    0 ROOT
