@<TRIPOS>MOLECULE
331
   70    71     1     0     0
SMALL
bcc


@<TRIPOS>ATOM
      1 C1           0.0000     0.0000     0.0000 ca         1 331      -0.089400
      2 N2          -0.7010     0.0050    -1.2140 ns         1 331      -0.062100
      3 C3           1.3900     0.0000     0.0000 ca         1 331       0.067900
      4 C4          -0.6920    -0.0110     1.2030 ca         1 331      -0.085000
      5 C5          -1.9820     0.4220    -1.2500 c          1 331       0.581100
      6 C6           2.0800     0.0000     1.1990 ca         1 331      -0.149000
      7 F7           2.0670     0.0100    -1.1690 f          1 331      -0.130900
      8 C8           0.0010    -0.0170     2.3970 ca         1 331      -0.116000
      9 N9          -2.6900     0.3270    -2.3920 n          1 331      -0.160800
     10 O10         -2.5000     0.8830    -0.2500 o          1 331      -0.685100
     11 C11          1.3860    -0.0110     2.3970 ca         1 331       0.091900
     12 C12         -4.0820     0.7810    -2.4310 c3         1 331       0.058000
     13 C13         -2.0670    -0.2290    -3.5950 c3         1 331       0.038000
     14 F14          2.0610    -0.0160     3.5670 f          1 331      -0.131900
     15 C15         -5.0070    -0.3800    -2.0630 c3         1 331       0.020900
     16 C16         -1.4100     0.8950    -4.3960 c3         1 331      -0.059400
     17 C17         -6.4400     0.0860    -2.1040 ca         1 331      -0.122300
     18 C18         -0.7580     0.3150    -5.6530 c3         1 331      -0.024400
     19 C19         -7.0290     0.6060    -0.9660 ca         1 331      -0.118000
     20 C20         -7.1640    -0.0110    -3.2770 ca         1 331      -0.118000
     21 C21         -0.1010     1.4400    -6.4530 c3         1 331      -0.029400
     22 C22         -8.3390     1.0390    -1.0020 ca         1 331      -0.107000
     23 C23         -8.4770     0.4170    -3.3160 ca         1 331      -0.107000
     24 C24          0.5500     0.8600    -7.7100 c3         1 331      -0.029400
     25 C25         -9.0680     0.9430    -2.1780 ca         1 331       0.160100
     26 C26          1.2080     1.9850    -8.5110 c3         1 331      -0.028400
     27 O27        -10.3610     1.3650    -2.2140 os         1 331      -0.319900
     28 C28          1.8580     1.4040    -9.7680 c3         1 331       0.005900
     29 C29        -10.3530     2.6690    -2.7940 c3         1 331       0.048800
     30 C30         -9.6390     3.6240    -1.8730 c          1 331       0.964600
     31 C31        -11.7930     3.1430    -3.0030 c3         1 331      -0.004400
     32 C32         -9.6300     2.6250    -4.1420 c3         1 331      -0.031100
     33 O33         -9.3690     4.8750    -2.2800 o          1 331      -0.885800
     34 O34         -9.3100     3.2650    -0.7670 o          1 331      -0.885800
     35 C35        -12.5160     3.1880    -1.6560 c3         1 331      -0.006100
     36 H36         -0.2630    -0.3370    -2.0460 hn         1 331       0.181500
     37 H37         -1.7750    -0.0160     1.2050 ha         1 331       0.183000
     38 H38          3.1640     0.0020     1.2010 ha         1 331       0.128000
     39 H39         -0.5400    -0.0260     3.3360 ha         1 331       0.122000
     40 H40         -4.3200     1.1300    -3.4290 h1         1 331       0.046200
     41 H41         -4.2190     1.5900    -1.7240 h1         1 331       0.046200
     42 H42         -1.3150    -0.9550    -3.3100 h1         1 331       0.023700
     43 H43         -2.8220    -0.7110    -4.2030 h1         1 331       0.023700
     44 H44         -4.7690    -0.7300    -1.0660 hc         1 331       0.010700
     45 H45         -4.8710    -1.1890    -2.7710 hc         1 331       0.010700
     46 H46         -2.1610     1.6220    -4.6820 hc         1 331       0.027700
     47 H47         -0.6540     1.3780    -3.7880 hc         1 331       0.027700
     48 H48         -0.0070    -0.4110    -5.3680 hc         1 331       0.013200
     49 H49         -1.5140    -0.1670    -6.2620 hc         1 331       0.013200
     50 H50         -6.4690     0.6520    -0.0400 ha         1 331       0.094500
     51 H51         -6.9110    -0.6100    -4.1440 ha         1 331       0.094500
     52 H52          0.6540     1.9220    -5.8450 hc         1 331       0.018200
     53 H53         -0.8520     2.1670    -6.7390 hc         1 331       0.018200
     54 H54         -8.8170     1.3920    -0.0960 ha         1 331       0.130000
     55 H55         -8.9840    -0.2160    -4.0340 ha         1 331       0.130000
     56 H56          1.3020     0.1330    -7.4250 hc         1 331       0.013200
     57 H57         -0.2050     0.3770    -8.3180 hc         1 331       0.013200
     58 H58          1.9640     2.4670    -7.9030 hc         1 331       0.013200
     59 H59          0.4560     2.7110    -8.7960 hc         1 331       0.013200
     60 H60          2.4250     2.1770   -10.2720 hc         1 331      -0.001633
     61 H61          1.0890     1.0290   -10.4330 hc         1 331      -0.001633
     62 H62          2.5210     0.5930    -9.4900 hc         1 331      -0.001633
     63 H63        -12.3060     2.4570    -3.6650 hc         1 331       0.008700
     64 H64        -11.7870     4.1330    -3.4430 hc         1 331       0.008700
     65 H65         -9.9020     1.7180    -4.6680 hc         1 331       0.009700
     66 H66         -9.9170     3.4860    -4.7340 hc         1 331       0.009700
     67 H67         -8.5590     2.6400    -3.9780 hc         1 331       0.009700
     68 H69        -12.0780     3.9610    -1.0360 hc         1 331       0.002700
     69 H70        -13.5650     3.4050    -1.8160 hc         1 331       0.002700
     70 H71        -12.4170     2.2300    -1.1610 hc         1 331       0.002700
@<TRIPOS>BOND
     1     1     2 1   
     2     1     3 ar  
     3     1     4 ar  
     4     2     5 1   
     5     2    36 1   
     6     3     6 ar  
     7     3     7 1   
     8     4     8 ar  
     9     4    37 1   
    10     5     9 1   
    11     5    10 2   
    12     6    11 ar  
    13     6    38 1   
    14     8    11 ar  
    15     8    39 1   
    16     9    12 1   
    17     9    13 1   
    18    11    14 1   
    19    12    15 1   
    20    12    40 1   
    21    12    41 1   
    22    13    16 1   
    23    13    42 1   
    24    13    43 1   
    25    15    17 1   
    26    15    44 1   
    27    15    45 1   
    28    16    18 1   
    29    16    46 1   
    30    16    47 1   
    31    17    19 ar  
    32    17    20 ar  
    33    18    21 1   
    34    18    48 1   
    35    18    49 1   
    36    19    22 ar  
    37    19    50 1   
    38    20    23 ar  
    39    20    51 1   
    40    21    24 1   
    41    21    52 1   
    42    21    53 1   
    43    22    25 ar  
    44    22    54 1   
    45    23    25 ar  
    46    23    55 1   
    47    24    26 1   
    48    24    56 1   
    49    24    57 1   
    50    25    27 1   
    51    26    28 1   
    52    26    58 1   
    53    26    59 1   
    54    27    29 1   
    55    28    60 1   
    56    28    61 1   
    57    28    62 1   
    58    29    30 1   
    59    29    31 1   
    60    29    32 1   
    61    30    33 1   
    62    30    34 1   
    63    31    35 1   
    64    31    63 1   
    65    31    64 1   
    66    32    65 1   
    67    32    66 1   
    68    32    67 1   
    69    35    68 1   
    70    35    69 1   
    71    35    70 1   
@<TRIPOS>SUBSTRUCTURE
     1 331         1 TEMP              0 ****  ****    0 ROOT
