@<TRIPOS>MOLECULE
332
   43    42     1     0     0
SMALL
bcc


@<TRIPOS>ATOM
      1 C9          0.3100   -0.4400    0.4980 c1        1 332      0.021000
      2 O10         1.5280   -0.0640    0.5770 os        1 332      0.036000
      3 C3          2.1890    0.2520    1.7770 c2        1 332     -0.064000
      4 C4          2.3620   -0.6260    2.8560 c2        1 332     -0.408000
      5 C6          1.7820   -1.8980    2.9230 c1        1 332     -0.030000
      6 N23        -1.3320   -2.7970    0.9380 n4        1 332     -0.064000
      7 N7          1.2600   -2.9390    2.9220 n1        1 332     -0.083000
      8 C11        -0.6750   -0.4920    1.5620 c2        1 332     -0.212000
      9 C13        -3.7060   -2.0670    2.3290 c2        1 332     -0.139000
     10 C18        -4.4170   -1.2690    1.2990 c3        1 332     -0.089000
     11 C17        -5.7840   -1.7870    1.0520 c2        1 332     -0.180000
     12 C16        -6.3380   -2.8170    1.7200 c2        1 332     -0.059000
     13 C22        -7.7230   -3.2580    1.4220 c3        1 332     -0.187000
     14 C21        -7.4610   -6.4310    3.1790 c2        1 332     -0.268000
     15 N20        -7.1460   -5.2870    3.7440 n3        1 332      0.105000
     16 C19        -6.0590   -4.5380    3.5090 c1        1 332     -0.284000
     17 C15        -5.6010   -3.5370    2.7640 c2        1 332     -0.054000
     18 C14        -4.2360   -3.0950    3.0230 c2        1 332     -0.004000
     19 S5          3.3530    0.0610    4.0020 ss        1 332      0.808000
     20 C1          3.5680    1.4610    3.1570 c2        1 332     -0.446000
     21 C2          2.8920    1.4730    1.9440 c2        1 332     -0.120000
     22 H9          0.0800   -1.8020   -1.6690 ha        1 332      0.003000
     23 H9A        -0.8680    0.4190    2.1630 ha        1 332      0.208000
     24 HN23       -2.2640   -3.1470    0.6770 hn        1 332      0.274333
     25 HN2A       -0.8510   -3.5110    1.5000 hn        1 332      0.274333
     26 H8         -3.1040   -2.2070   -1.9390 ha        1 332      0.003000
     27 H8A        -2.6430   -2.3970   -1.4790 ha        1 332      0.003000
     28 H11        -0.3020   -2.3320   -1.8600 ha        1 332      0.003000
     29 H18        -3.8320   -1.2760    0.3350 hc        1 332      0.098000
     30 H17        -4.4800   -0.1950    1.6350 hc        1 332      0.098000
     31 H22        -6.3460   -1.2480    0.2720 ha        1 332      0.144000
     32 H22A       -8.1610   -2.6780    0.5720 hc        1 332      0.090000
     33 H21        -8.3770   -3.1080    2.3170 hc        1 332      0.090000
     34 H21A       -7.7370   -4.3430    1.1480 hc        1 332      0.090000
     35 HN20       -8.2140   -7.0860    3.6400 h4        1 332      0.165000
     36 H19        -6.9390   -6.7700    2.2730 h4        1 332      0.165000
     37 H19A       -7.6300   -5.0260    4.5960 hn        1 332      0.254000
     38 H14        -3.6760   -3.6180    3.8180 ha        1 332      0.164000
     39 H1          4.1850    2.2890    3.5180 h4        1 332      0.205000
     40 H2          2.8980    2.2830    1.2100 ha        1 332      0.191000
     41 C8         -1.4880   -1.5590    1.7230 c2        1 332      0.050000
     42 O12        -2.4300   -1.6060    2.7280 os        1 332     -0.126000
     43 H233       -0.7890   -2.5910    0.0810 hn        1 332      0.274333
@<TRIPOS>BOND
     1    1    2 1   
     2    1    8 1   
     3    2    3 1   
     4    3    4 1   
     5    3   21 1   
     6    4    5 1   
     7    4   19 1   
     8    5    7 1   
     9    6   24 1   
    10    6   25 1   
    11    6   41 1   
    12    6   43 1   
    13    8   23 1   
    14    8   41 1   
    15    9   10 1   
    16    9   18 1   
    17    9   42 1   
    18   10   11 1   
    19   10   29 1   
    20   10   30 1   
    21   11   12 1   
    22   11   31 1   
    23   12   13 1   
    24   12   17 1   
    25   13   32 1   
    26   13   33 1   
    27   13   34 1   
    28   14   15 1   
    29   14   35 1   
    30   14   36 1   
    31   15   16 1   
    32   15   37 1   
    33   16   17 1   
    34   17   18 1   
    35   18   38 1   
    36   19   20 1   
    37   20   21 1   
    38   20   39 1   
    39   21   40 1   
    40   22   28 1   
    41   26   27 1   
    42   41   42 1   
@<TRIPOS>SUBSTRUCTURE
     1 332         1 TEMP              0 ****  ****    0 ROOT
