@<TRIPOS>MOLECULE
molecule
   42    46     1     0     0
SMALL
bcc


@<TRIPOS>ATOM
      1 C36          0.0000     0.0000     0.0000 ca         1 333      -0.110000
      2 C35          1.3800     0.0000     0.0000 ca         1 333       0.048100
      3 O39          2.1780     0.0000     1.1020 os         1 333      -0.299900
      4 C38          3.4860    -0.0000     0.4950 c3         1 333       0.300200
      5 O37          3.4460     0.0020    -0.9460 os         1 333      -0.292900
      6 C34          2.1040     0.0010    -1.1690 ca         1 333       0.050100
      7 C33          1.4890     0.0020    -2.4050 ca         1 333      -0.111000
      8 C32          0.0930     0.0020    -2.4330 ca         1 333      -0.121000
      9 C31         -0.6480     0.0010    -1.2380 ca         1 333       0.101100
     10 O28         -2.0090     0.0010    -1.2890 os         1 333      -0.360400
     11 C23         -2.6520    -1.2250    -1.3140 ca         1 333       0.688600
     12 N22         -1.8660    -2.3140    -1.2850 nb         1 333      -0.803000
     13 C24         -4.0230    -1.2480    -1.3650 ca         1 333      -0.403600
     14 C25         -4.5870    -2.5080    -1.3860 ca         1 333       0.479200
     15 N26         -3.8690    -3.6500    -1.3610 nb         1 333      -0.708000
     16 C21         -2.5340    -3.4820    -1.3120 ca         1 333       0.885300
     17 O17         -1.7720    -4.6260    -1.2840 os         1 333      -0.339400
     18 C14         -0.4030    -4.4700    -1.2330 ca         1 333       0.095100
     19 C15          0.3160    -4.3920    -2.4150 ca         1 333      -0.091000
     20 C16          1.7010    -4.2320    -2.3640 ca         1 333      -0.145000
     21 C13          0.2270    -4.3930    -0.0020 ca         1 333      -0.091000
     22 C12          1.6110    -4.2330     0.0500 ca         1 333      -0.145000
     23 C11          2.3490    -4.1530    -1.1320 ca         1 333       0.020800
     24 N3           3.7210    -3.9940    -1.0810 na         1 333      -0.105000
     25 C4           4.5740    -3.9000    -2.1510 cc         1 333      -0.257600
     26 C5           5.8260    -3.7550    -1.6010 cd         1 333       0.292200
     27 NFE          5.7690    -3.7560    -0.2300 nd         1 333      -0.655000
     28 C2           4.4930    -3.9020     0.0510 cc         1 333       0.388400
     29 H36         -0.5610    -0.0010     0.9270 ha         1 333       0.160000
     30 H381         4.0040    -0.8960     0.8150 h2         1 333       0.069700
     31 H382         4.0050     0.8940     0.8180 h2         1 333       0.069700
     32 H33          2.0680     0.0030    -3.3210 ha         1 333       0.155000
     33 H32         -0.4250     0.0030    -3.3840 ha         1 333       0.148000
     34 H24         -4.6190    -0.3440    -1.3850 ha         1 333       0.174000
     35 H25         -5.6670    -2.5830    -1.4260 h4         1 333       0.036100
     36 H15         -0.1920    -4.4540    -3.3700 ha         1 333       0.152500
     37 H16          2.2730    -4.1700    -3.2820 ha         1 333       0.144500
     38 H13         -0.3500    -4.4560     0.9130 ha         1 333       0.152500
     39 H12          2.1140    -4.1720     1.0080 ha         1 333       0.144500
     40 H4           4.3170    -3.9340    -3.2030 h4         1 333       0.183000
     41 H5           6.7390    -3.6520    -2.1750 h4         1 333       0.039100
     42 H2           4.0960    -3.9430     1.0580 h5         1 333       0.060100
@<TRIPOS>BOND
     1     1     9 ar
     2     1     2 ar
     3     1    29 1
     4     2     3 1
     5     2     6 ar
     6     3     4 1
     7     4     5 1
     8     4    30 1
     9     4    31 1
    10     5     6 1
    11     6     7 ar
    12     7     8 ar
    13     7    32 1
    14     8     9 ar
    15     8    33 1
    16     9    10 1
    17    10    11 1
    18    11    13 ar
    19    11    12 ar
    20    12    16 ar
    21    13    14 ar
    22    13    34 1
    23    14    15 ar
    24    14    35 1
    25    15    16 ar
    26    16    17 1
    27    17    18 1
    28    18    19 ar
    29    18    21 ar
    30    19    20 ar
    31    19    36 1
    32    20    23 ar
    33    20    37 1
    34    21    22 ar
    35    21    38 1
    36    22    23 ar
    37    22    39 1
    38    23    24 1
    39    24    25 1
    40    24    28 1
    41    25    26 2
    42    25    40 1
    43    26    27 1
    44    26    41 1
    45    27    28 2
    46    28    42 1
@<TRIPOS>SUBSTRUCTURE
     1 333         1 TEMP              0 ****  ****    0 ROOT
