@<TRIPOS>MOLECULE
333
   42    46     1     0     0
SMALL
bcc


@<TRIPOS>ATOM
      1 C36        -0.0360   -0.0460   -0.2180 ca        1 333     -0.101000
      2 C35         1.2970    0.3020   -0.2720 ca        1 333      0.064100
      3 O39         2.2770    0.1260    0.6980 os        1 333     -0.330900
      4 C38         3.5070    0.6570    0.1510 c3        1 333      0.320200
      5 O37         3.2200    1.1610   -1.1750 os        1 333     -0.330900
      6 C34         1.8700    0.9310   -1.4100 ca        1 333      0.059100
      7 C33         1.1300    1.2310   -2.5360 ca        1 333     -0.108000
      8 C32        -0.2300    0.8760   -2.5070 ca        1 333     -0.125000
      9 C31        -0.7810    0.2670   -1.3760 ca        1 333      0.089100
     10 O28        -2.1690    0.0790   -1.3800 os        1 333     -0.357400
     11 C23        -2.6510   -1.2160   -1.3470 ca        1 333      0.680600
     12 N22        -1.8200   -2.2890   -1.2950 nb        1 333     -0.787000
     13 C24        -4.0660   -1.3250   -1.3760 ca        1 333     -0.406600
     14 C25        -4.5810   -2.6300   -1.3520 ca        1 333      0.466200
     15 N26        -3.8170   -3.7400   -1.3000 nb        1 333     -0.704000
     16 C21        -2.4620   -3.5040   -1.2720 ca        1 333      0.870300
     17 O17        -1.7230   -4.6810   -1.2120 os        1 333     -0.332400
     18 C14        -0.3320   -4.5560   -1.1310 ca        1 333      0.086100
     19 C15         0.4210   -4.1620   -2.2410 ca        1 333     -0.097000
     20 C16         1.8090   -4.1770   -2.1620 ca        1 333     -0.139500
     21 C13         0.2820   -4.9640    0.0590 ca        1 333     -0.097000
     22 C12         1.6700   -4.9900    0.1330 ca        1 333     -0.139500
     23 C11         2.4520   -4.5890   -0.9730 ca        1 333      0.018800
     24 N3          3.8550   -4.5930   -0.8870 na        1 333     -0.143000
     25 C4          4.7630   -4.7290   -1.9500 cc        1 333     -0.244600
     26 C5          6.0430   -4.6500   -1.3810 cd        1 333      0.294200
     27 NFE         5.9460   -4.4650    0.0010 nd        1 333     -0.663000
     28 C2          4.6310   -4.4340    0.2810 cc        1 333      0.400400
     29 H36        -0.4920   -0.5390    0.6490 ha        1 333      0.171000
     30 H381        3.8430    1.5090    0.7910 h2        1 333      0.077700
     31 H382        4.2480   -0.1760    0.0640 h2        1 333      0.077700
     32 H33         1.5750    1.7180   -3.4130 ha        1 333      0.161000
     33 H32        -0.8690    1.0920   -3.3760 ha        1 333      0.155000
     34 H24        -4.7020   -0.4350   -1.4160 ha        1 333      0.174000
     35 H25        -5.6730   -2.8100   -1.3730 h4        1 333      0.039100
     36 H15        -0.0820   -3.8320   -3.1620 ha        1 333      0.156500
     37 H16         2.4000   -3.8550   -3.0340 ha        1 333      0.148000
     38 H13        -0.3320   -5.2740    0.9180 ha        1 333      0.156500
     39 H12         2.1500   -5.3260    1.0650 ha        1 333      0.148000
     40 H4          4.4390   -4.8790   -2.9780 h4        1 333      0.181000
     41 H5          7.0100   -4.7160   -1.8780 h4        1 333      0.045100
     42 H2          4.1840   -4.2940    1.2700 h5        1 333      0.065100
@<TRIPOS>BOND
     1    1    2 ar  
     2    1    9 ar  
     3    1   29 1   
     4    2    3 1   
     5    2    6 ar  
     6    3    4 1   
     7    4    5 1   
     8    4   30 1   
     9    4   31 1   
    10    5    6 1   
    11    6    7 ar  
    12    7    8 ar  
    13    7   32 1   
    14    8    9 ar  
    15    8   33 1   
    16    9   10 1   
    17   10   11 1   
    18   11   12 ar  
    19   11   13 ar  
    20   12   16 ar  
    21   13   14 ar  
    22   13   34 1   
    23   14   15 ar  
    24   14   35 1   
    25   15   16 ar  
    26   16   17 1   
    27   17   18 1   
    28   18   19 ar  
    29   18   21 ar  
    30   19   20 ar  
    31   19   36 1   
    32   20   23 ar  
    33   20   37 1   
    34   21   22 ar  
    35   21   38 1   
    36   22   23 ar  
    37   22   39 1   
    38   23   24 1   
    39   24   25 1   
    40   24   28 1   
    41   25   26 2   
    42   25   40 1   
    43   26   27 1   
    44   26   41 1   
    45   27   28 2   
    46   28   42 1   
@<TRIPOS>SUBSTRUCTURE
     1 333         1 TEMP              0 ****  ****    0 ROOT
