@<TRIPOS>MOLECULE
334
   34    36     1     0     0
SMALL
bcc


@<TRIPOS>ATOM
      1 C1         -0.0190    0.0380   -0.0100 ca        1 334     -0.299900
      2 C2          1.3000    0.5420   -0.0060 ca        1 334     -0.100000
      3 C3          2.0010    0.7260    1.1750 ca        1 334     -0.147000
      4 C4          1.3700    0.3870    2.3770 ca        1 334      0.034000
      5 C5         -0.0110   -0.1450    2.3900 ca        1 334     -0.027000
      6 C6         -0.6810   -0.3080    1.1870 ca        1 334     -0.089000
      7 C7         -0.7260   -0.1270   -1.2820 ce        1 334      0.530400
      8 N1         -0.0370   -0.5260   -2.3860 nh        1 334     -0.501100
      9 N2         -2.0620    0.1270   -1.3400 nh        1 334     -0.485200
     10 N3          1.7630    0.4320    3.6910 na        1 334     -0.240600
     11 N4         -0.4010   -0.4010    3.7010 nc        1 334     -0.373600
     12 C8          0.6740   -0.0500    4.4900 cc        1 334      0.314500
     13 C1'         0.7490   -0.1320    5.9160 cd        1 334     -0.323200
     14 C2'        -0.3750   -0.6270    6.6180 cd        1 334      0.012000
     15 C3'        -0.3850   -0.7380    7.9890 cc        1 334     -0.226200
     16 CV'        -1.5580   -1.2550    8.7260 c3        1 334     -0.024900
     17 C4'         0.7670   -0.3430    8.7200 cc        1 334     -0.015000
     18 C5'         1.8790    0.1410    8.0920 cd        1 334     -0.187500
     19 C6'         1.9430    0.2780    6.6380 c         1 334      0.600500
     20 O6'         2.9710    0.7250    6.0630 o         1 334     -0.694100
     21 BR5'        3.3550    0.6370    9.1470 br        1 334     -0.109700
     22 HC2         1.7850    0.8390   -0.9490 ha        1 334      0.119000
     23 HC3         3.0220    1.1320    1.1660 ha        1 334      0.152000
     24 HC6        -1.6920   -0.7390    1.1880 ha        1 334      0.140000
     25 HH11       -0.4510   -0.6030   -3.2850 hn        1 334      0.312450
     26 HH12        0.9330   -0.7280   -2.2890 hn        1 334      0.312450
     27 HH21       -2.5190    0.4320   -0.5070 hn        1 334      0.312450
     28 HH22       -2.6100   -0.0360   -2.1510 hn        1 334      0.312450
     29 HN3         2.6340    0.7400    4.0730 hn        1 334      0.359700
     30 HC2'       -1.2700   -0.9340    6.0510 ha        1 334      0.130000
     31 H32'       -2.3880   -1.5260    8.0280 hc        1 334      0.026033
     32 H33'       -1.2820   -2.1670    9.3120 hc        1 334      0.026033
     33 H34'       -1.9410   -0.4860    9.4430 hc        1 334      0.026033
     34 HC4'        0.7330   -0.4420    9.8180 ha        1 334      0.125000
@<TRIPOS>BOND
     1    1    2 ar  
     2    1    6 ar  
     3    1    7 1   
     4    2    3 ar  
     5    2   22 1   
     6    3    4 ar  
     7    3   23 1   
     8    4    5 ar  
     9    4   10 2   
    10    5    6 ar  
    11    5   11 2   
    12    6   24 1   
    13    7    8 2   
    14    7    9 1   
    15    8   25 1   
    16    8   26 1   
    17    9   27 1   
    18    9   28 1   
    19   10   12 1   
    20   10   29 1   
    21   11   12 1   
    22   12   13 2   
    23   13   14 1   
    24   13   19 1   
    25   14   15 2   
    26   14   30 1   
    27   15   16 1   
    28   15   17 1   
    29   16   31 1   
    30   16   32 1   
    31   16   33 1   
    32   17   18 2   
    33   17   34 1   
    34   18   19 1   
    35   18   21 1   
    36   19   20 2   
@<TRIPOS>SUBSTRUCTURE
     1 334         1 TEMP              0 ****  ****    0 ROOT
