@<TRIPOS>MOLECULE
molecule
   35    37     1     0     0
SMALL
bcc


@<TRIPOS>ATOM
      1 C1           0.0000     0.0000     0.0000 ca         1 334      -0.085900
      2 C2           1.4010     0.0000     0.0000 ca         1 334      -0.150000
      3 C3           2.0920     0.0000     1.1770 ca         1 334      -0.103000
      4 C4           1.4110     0.0010     2.3880 ca         1 334       0.009000
      5 C5           0.0020     0.0000     2.4070 ca         1 334      -0.007000
      6 C6          -0.7000     0.0000     1.2020 ca         1 334      -0.147000
      7 C7          -0.7360     0.0010    -1.2820 ce         1 334       0.137800
      8 N1          -0.0680     0.0010    -2.4340 nz         1 334      -0.688600
      9 N2          -2.0690     0.0000    -1.2850 nv         1 334      -0.493100
     10 N3           1.8120    -0.0000     3.7070 na         1 334      -0.173600
     11 N4          -0.3810    -0.0050     3.7070 nc         1 334      -0.332600
     12 C8           0.6800     0.0000     4.4770 cc         1 334       0.240500
     13 C1'          0.6570    -0.0010     5.9550 cd         1 334      -0.057000
     14 C2'         -0.2750    -0.7810     6.6420 cd         1 334      -0.089000
     15 C3'         -0.2940    -0.7740     8.0210 cc         1 334      -0.036200
     16 CV'         -1.3040    -1.6120     8.7610 c3         1 334      -0.060900
     17 C4'          0.6130    -0.0040     8.7280 cc         1 334      -0.075000
     18 C5'          1.5440     0.7690     8.0590 cd         1 334      -0.061300
     19 C6'          1.5740     0.7770     6.6730 c          1 334       0.445100
     20 O6'          2.4880     1.5350     6.0150 o          1 334      -0.574100
     21 Br5'         2.7780     1.8170     9.0370 br         1 334      -0.000700
     22 HC2          2.1940    -0.0010    -0.7370 ha         1 334       0.146000
     23 HC3          3.1760     0.0000     1.1840 ha         1 334       0.155000
     24 HC6         -1.7400     0.0140     1.5060 ha         1 334       0.178000
     25 HH11        -0.7160     0.0020    -3.1970 hn         1 334       0.449467
     26 HH12         0.5080     0.8180    -2.4860 hn         1 334       0.449467
     27 HH21        -2.5680     0.0010    -2.1520 hn         1 334       0.310700
     28 HH22        -2.5710    -0.0000    -0.4190 hn         1 334       0.310700
     29 HN3          2.7560     0.0030     4.0400 hn         1 334       0.342700
     30 HC2'        -0.9480    -1.4290     6.0940 ha         1 334       0.160000
     31 H32'        -2.3030    -1.3450     8.4370 hc         1 334       0.061700
     32 H33'        -1.1260    -2.6600     8.5530 hc         1 334       0.061700
     33 H34'        -1.2100    -1.4340     9.8250 hc         1 334       0.061700
     34 HC4'         0.5920    -0.0060     9.8110 ha         1 334       0.164000
     35 H13          0.5070    -0.8160    -2.4870 hn         1 334       0.449467
@<TRIPOS>BOND
     1     1     2 ar
     2     1     6 ar
     3     1     7 1
     4     2     3 ar
     5     2    22 1
     6     3     4 ar
     7     3    23 1
     8     4     5 ar
     9     4    10 2
    10     5     6 ar
    11     5    11 2
    12     6    24 1
    13     7     8 1
    14     7     9 2
    15     8    25 1
    16     8    26 1
    17     9    27 1
    18     9    28 1
    19    10    12 1
    20    10    29 1
    21    11    12 1
    22    12    13 2
    23    13    14 1
    24    13    19 1
    25    14    15 2
    26    14    30 1
    27    15    16 1
    28    15    17 1
    29    16    31 1
    30    16    32 1
    31    16    33 1
    32    17    18 2
    33    17    34 1
    34    18    19 1
    35    18    21 1
    36    19    20 2
    37    35     8 1
@<TRIPOS>SUBSTRUCTURE
     1 334         1 TEMP              0 ****  ****    0 ROOT
