@<TRIPOS>MOLECULE
molecule
   65    69     1     0     0
SMALL
bcc


@<TRIPOS>ATOM
      1 C32          0.0000     0.0000     0.0000 c3         1 335      -0.040100
      2 C33          1.5080     0.0000     0.0000 ca         1 335      -0.133800
      3 C4A          2.1990     0.0000     1.1970 ca         1 335      -0.138750
      4 C4B          2.1990     0.0010    -1.1970 ca         1 335      -0.138750
      5 C5A          3.5810     0.0010     1.1980 ca         1 335      -0.079500
      6 C5B          3.5810     0.0050    -1.1970 ca         1 335      -0.079500
      7 C36          4.2720    -0.0010     0.0010 ca         1 335      -0.065800
      8 C37          5.7790    -0.0010     0.0010 c3         1 335       0.322700
      9 F38          6.2450     0.5580     1.1950 f          1 335      -0.271550
     10 F39          6.2460     0.7530    -1.0820 f          1 335      -0.271550
     11 P40          6.3860    -1.7140    -0.1460 p5         1 335       0.991700
     12 O41          5.7450    -2.4000    -1.4540 o          1 335      -0.881000
     13 O42          5.9600    -2.5480     1.1620 o          1 335      -0.881000
     14 O43          7.8610    -1.7060    -0.2680 o          1 335      -0.881000
     15 C1          -0.5100     1.4390    -0.1090 c3         1 335       0.081000
     16 C12         -2.0390     1.4370    -0.1190 c3         1 335      -0.040100
     17 C13         -2.5410     2.8350    -0.3770 ca         1 335      -0.133800
     18 C1A         -2.4470     3.3800    -1.6450 ca         1 335      -0.138750
     19 C1B         -3.1010     3.5700     0.6510 ca         1 335      -0.138750
     20 C2A         -2.9070     4.6620    -1.8810 ca         1 335      -0.079500
     21 C2B         -3.5560     4.8530     0.4150 ca         1 335      -0.079500
     22 C16         -3.4620     5.3990    -0.8520 ca         1 335      -0.065800
     23 C17         -3.9620     6.7970    -1.1100 c3         1 335       0.322700
     24 F18         -3.7270     7.5910     0.0170 f          1 335      -0.271550
     25 F19         -3.2890     7.3370    -2.2100 f          1 335      -0.271550
     26 P20         -5.7510     6.7470    -1.4560 p5         1 335       0.991700
     27 O21         -6.0340     5.7300    -2.6720 o          1 335      -0.881000
     28 O22         -6.5380     6.2470    -0.1440 o          1 335      -0.881000
     29 O23         -6.2200     8.1010    -1.8270 o          1 335      -0.881000
     30 C51          0.0010     2.0560    -1.3860 ca         1 335      -0.045300
     31 C6A         -0.3710     1.5270    -2.6070 ca         1 335      -0.091500
     32 C6B          0.8370     3.1560    -1.3350 ca         1 335      -0.091500
     33 C55          0.9370     3.1910    -3.7270 ca         1 335      -0.132000
     34 C53          0.0960     2.0940    -3.7780 ca         1 335      -0.133500
     35 C54          1.3080     3.7200    -2.5050 ca         1 335      -0.133500
     36 N61         -0.0280     2.2180     1.0380 na         1 335       0.137900
     37 N62         -0.3940     3.5280     0.9020 nc         1 335      -0.122400
     38 N63         -1.1190     3.8870     1.8350 nd         1 335      -0.181400
     39 C7A         -1.3320     2.8620     2.7130 ca         1 335       0.026400
     40 C7B         -0.6270     1.7570     2.2160 ca         1 335      -0.102200
     41 C8A         -2.0540     2.7380     3.8970 ca         1 335      -0.064000
     42 C8B         -0.6490     0.5630     2.8880 ca         1 335      -0.111000
     43 C9A         -2.0670     1.5310     4.5670 ca         1 335      -0.165000
     44 C9B         -1.3690     0.4460     4.0670 ca         1 335      -0.127000
     45 H321        -0.3610    -0.4420     0.9210 hc         1 335       0.045950
     46 H322        -0.3610    -0.5760    -0.8430 hc         1 335       0.045950
     47 H4A          1.6570     0.0010     2.1350 ha         1 335       0.107750
     48 H4B          1.6570     0.0050    -2.1360 ha         1 335       0.107750
     49 H5A          4.1220    -0.0010     2.1360 ha         1 335       0.146500
     50 H5B          4.1220     0.0040    -2.1350 ha         1 335       0.146500
     51 H121        -2.3950     0.7760    -0.9000 hc         1 335       0.045950
     52 H122        -2.4070     1.0930     0.8400 hc         1 335       0.045950
     53 H1A         -2.0130     2.8030    -2.4520 ha         1 335       0.107750
     54 H1B         -3.1750     3.1430     1.6430 ha         1 335       0.107750
     55 H2A         -2.8330     5.0880    -2.8740 ha         1 335       0.146500
     56 H2B         -3.9930     5.4300     1.2220 ha         1 335       0.146500
     57 H6A         -1.0300     0.6680    -2.6470 ha         1 335       0.142500
     58 H6B          1.1280     3.5720    -0.3780 ha         1 335       0.142500
     59 H55          1.3050     3.6350    -4.6440 ha         1 335       0.106000
     60 H53         -0.1950     1.6790    -4.7360 ha         1 335       0.114000
     61 H54          1.9650     4.5810    -2.4650 ha         1 335       0.114000
     62 H8A         -2.6020     3.5850     4.2920 ha         1 335       0.140000
     63 H8B         -0.1030    -0.2890     2.5000 ha         1 335       0.162000
     64 H9A         -2.6280     1.4320     5.4880 ha         1 335       0.112000
     65 H9B         -1.3850    -0.4980     4.5980 ha         1 335       0.118000
@<TRIPOS>BOND
     1     1     2 1
     2     1    15 1
     3     1    45 1
     4     1    46 1
     5     2     3 ar
     6     2     4 ar
     7     3     5 ar
     8     3    47 1
     9     4     6 ar
    10     4    48 1
    11     5     7 ar
    12     5    49 1
    13     6     7 ar
    14     6    50 1
    15     7     8 1
    16     8     9 1
    17     8    10 1
    18     8    11 1
    19    11    12 1
    20    11    13 1
    21    11    14 1
    22    15    16 1
    23    15    30 1
    24    15    36 1
    25    16    17 1
    26    16    51 1
    27    16    52 1
    28    17    18 ar
    29    17    19 ar
    30    18    20 ar
    31    18    53 1
    32    19    21 ar
    33    19    54 1
    34    20    22 ar
    35    20    55 1
    36    21    22 ar
    37    21    56 1
    38    22    23 1
    39    23    24 1
    40    23    25 1
    41    23    26 1
    42    26    27 1
    43    26    28 1
    44    26    29 1
    45    30    31 ar
    46    30    32 ar
    47    31    34 ar
    48    31    57 1
    49    32    35 ar
    50    32    58 1
    51    33    34 ar
    52    33    35 ar
    53    33    59 1
    54    34    60 1
    55    35    61 1
    56    36    37 1
    57    36    40 1
    58    37    38 2
    59    38    39 1
    60    39    40 ar
    61    39    41 ar
    62    40    42 ar
    63    41    43 ar
    64    41    62 1
    65    42    44 ar
    66    42    63 1
    67    43    44 ar
    68    43    64 1
    69    44    65 1
@<TRIPOS>SUBSTRUCTURE
     1 335         1 TEMP              0 ****  ****    0 ROOT
