@<TRIPOS>MOLECULE
335
   65    67     1     0     0
SMALL
bcc


@<TRIPOS>ATOM
      1 C32         0.2930    0.5340   -0.5880 c3        1 335     -0.098500
      2 C33         1.6940    0.2120   -0.2260 ca        1 335     -0.193000
      3 C4A         2.0760   -0.0070    1.1060 ca        1 335     -0.109500
      4 C4B         2.6450   -0.0380   -1.2290 ca        1 335     -0.109500
      5 C5A         3.3540   -0.4390    1.4270 ca        1 335     -0.178000
      6 C5B         3.9250   -0.4680   -0.9180 ca        1 335     -0.178000
      7 C36         4.3200   -0.6760    0.4230 ca        1 335      0.048000
      8 C37         5.6240   -1.2510    0.7370 c2        1 335     -0.256500
      9 F38         6.1350   -1.0090    1.9850 f         1 335     -0.198000
     10 F39         6.6600   -0.9420   -0.1070 f         1 335     -0.198000
     11 P40         6.5150   -3.3700    0.8810 p3        1 335      2.508000
     12 O41         6.2860   -3.8480   -0.5090 o         1 335     -1.191000
     13 O42         5.6640   -3.9530    1.9520 o         1 335     -1.191000
     14 O43         7.9090   -3.0040    1.2480 o         1 335     -1.191000
     15 C1         -0.2260    2.0190   -0.5460 c3        1 335      0.152000
     16 C12        -1.7630    1.8700   -0.8010 c3        1 335     -0.098500
     17 C13        -2.6850    3.0330   -0.8970 ca        1 335     -0.193000
     18 C1A        -3.4780    3.1670   -2.0540 ca        1 335     -0.109500
     19 C1B        -2.9310    3.9170    0.1610 ca        1 335     -0.109500
     20 C2A        -4.4310    4.1650   -2.1690 ca        1 335     -0.178000
     21 C2B        -3.8890    4.9190    0.0540 ca        1 335     -0.178000
     22 C16        -4.6520    5.0830   -1.1190 ca        1 335      0.048000
     23 C17        -5.7370    6.0720   -1.2180 c2        1 335     -0.256500
     24 F18        -5.6370    7.1680   -0.3990 f         1 335     -0.198000
     25 F19        -5.9290    6.6200   -2.4640 f         1 335     -0.198000
     26 P20        -7.9790    6.0460   -0.9220 p3        1 335      2.508000
     27 O21        -8.3670    5.0260   -1.9350 o         1 335     -1.191000
     28 O22        -8.0790    5.6530    0.5100 o         1 335     -1.191000
     29 O23        -8.2750    7.4670   -1.2520 o         1 335     -1.191000
     30 C51         0.5010    2.7860   -1.6410 ca        1 335     -0.063000
     31 C6A        -0.1640    3.3350   -2.7400 ca        1 335     -0.090000
     32 C6B         1.8960    2.9270   -1.5630 ca        1 335     -0.090000
     33 C55         1.9290    4.1280   -3.6600 ca        1 335     -0.144000
     34 C53         0.5460    3.9970   -3.7440 ca        1 335     -0.153500
     35 C54         2.6020    3.5910   -2.5630 ca        1 335     -0.153500
     36 N61         0.0210    2.6400    0.7750 na        1 335     -0.144000
     37 N62         0.6200    3.8420    0.9660 n2        1 335      0.066000
     38 N63         0.6290    4.1970    2.1810 n2        1 335     -0.117000
     39 C7A        -0.0250    3.2010    2.9560 ca        1 335     -0.131000
     40 C7B        -0.4360    2.1660    2.0220 ca        1 335     -0.003000
     41 C8A        -0.2980    3.0790    4.3220 ca        1 335     -0.060000
     42 C8B        -1.1100    1.0260    2.4850 ca        1 335     -0.101000
     43 C9A        -0.9690    1.9440    4.7480 ca        1 335     -0.170000
     44 C9B        -1.3660    0.9400    3.8440 ca        1 335     -0.117000
     45 H321        0.1110    0.2020   -1.6480 hc        1 335      0.075250
     46 H322       -0.3840   -0.0750    0.0720 hc        1 335      0.075250
     47 H4A         1.3410    0.1680    1.9080 ha        1 335      0.094750
     48 H4B         2.3650    0.1130   -2.2820 ha        1 335      0.094750
     49 H5A         3.6370   -0.6190    2.4740 ha        1 335      0.133750
     50 H5B         4.6560   -0.6750   -1.7120 ha        1 335      0.133750
     51 H121       -1.8360    1.2800   -1.7580 hc        1 335      0.075250
     52 H122       -2.1600    1.2090    0.0220 hc        1 335      0.075250
     53 H1A        -3.3450    2.4570   -2.8840 ha        1 335      0.094750
     54 H1B        -2.3670    3.8190    1.0990 ha        1 335      0.094750
     55 H2A        -5.0520    4.2510   -3.0730 ha        1 335      0.133750
     56 H2B        -4.0740    5.6010    0.8970 ha        1 335      0.133750
     57 H6A        -1.2600    3.2740   -2.8260 ha        1 335      0.167500
     58 H6B         2.4480    2.4910   -0.7110 ha        1 335      0.167500
     59 H55         2.4860    4.6530   -4.4480 ha        1 335      0.100000
     60 H53        -0.0000    4.4270   -4.5950 ha        1 335      0.118000
     61 H54         3.6950    3.6840   -2.4840 ha        1 335      0.118000
     62 H8A         0.0130    3.8620    5.0250 ha        1 335      0.128000
     63 H8B        -1.4250    0.2280    1.8000 ha        1 335      0.147000
     64 H9A        -1.2020    1.8180    5.8140 ha        1 335      0.110000
     65 H9B        -1.8950    0.0580    4.2320 ha        1 335      0.118000
@<TRIPOS>BOND
     1    1    2 1   
     2    1   15 1   
     3    1   45 1   
     4    1   46 1   
     5    2    3 1   
     6    2    4 1   
     7    3    5 1   
     8    3   47 1   
     9    4    6 1   
    10    4   48 1   
    11    5    7 1   
    12    5   49 1   
    13    6    7 1   
    14    6   50 1   
    15    7    8 1   
    16    8    9 1   
    17    8   10 1   
    18   11   12 1   
    19   11   13 1   
    20   11   14 1   
    21   15   16 1   
    22   15   30 1   
    23   15   36 1   
    24   16   17 1   
    25   16   51 1   
    26   16   52 1   
    27   17   18 1   
    28   17   19 1   
    29   18   20 1   
    30   18   53 1   
    31   19   21 1   
    32   19   54 1   
    33   20   22 1   
    34   20   55 1   
    35   21   22 1   
    36   21   56 1   
    37   22   23 1   
    38   23   24 1   
    39   23   25 1   
    40   26   27 1   
    41   26   28 1   
    42   26   29 1   
    43   30   31 1   
    44   30   32 1   
    45   31   34 1   
    46   31   57 1   
    47   32   35 1   
    48   32   58 1   
    49   33   34 1   
    50   33   35 1   
    51   33   59 1   
    52   34   60 1   
    53   35   61 1   
    54   36   37 1   
    55   36   40 1   
    56   37   38 1   
    57   38   39 1   
    58   39   40 1   
    59   39   41 1   
    60   40   42 1   
    61   41   43 1   
    62   41   62 1   
    63   42   44 1   
    64   42   63 1   
    65   43   44 1   
    66   43   64 1   
    67   44   65 1   
@<TRIPOS>SUBSTRUCTURE
     1 335         1 TEMP              0 ****  ****    0 ROOT
