@<TRIPOS>MOLECULE
molecule
   68    72     1     0     0
SMALL
bcc


@<TRIPOS>ATOM
      1 C1           0.0000     0.0000     0.0000 c3         1 336       0.080500
      2 C4           0.1360     1.0820     2.2460 c3         1 336      -0.069700
      3 C6           1.6590     1.1780     2.1260 c3         1 336      -0.107900
      4 C9           2.1750     0.0000     1.2870 c3         1 336       0.080500
      5 N12          1.4690     0.0000     0.0000 n          1 336      -0.460800
      6 C13         -0.4930     1.1720     0.8540 c3         1 336      -0.107900
      7 C17         -1.0460     5.3600     1.1100 ca         1 336      -0.069000
      8 C19         -3.5640     0.6270     5.4140 ca         1 336       0.026400
      9 C20         -3.8290     1.6560     4.5480 ca         1 336      -0.115000
     10 C22         -3.4580     3.2480     2.8010 c3         1 336      -0.027100
     11 C25         -2.6620     4.5060     2.6590 c3         1 336      -0.026100
     12 C28         -1.3160     0.6540     4.6590 ca         1 336      -0.028900
     13 C29          0.1890     5.4820     0.5180 ca         1 336      -0.154200
     14 C30          1.1710     4.5670     0.8580 ca         1 336       0.448200
     15 N32          0.8890     3.6050     1.6970 nb         1 336      -0.703000
     16 C33         -0.3810     2.2310     3.1130 c3         1 336      -0.081700
     17 C35         -2.2850     0.0990     5.4570 ca         1 336      -0.085000
     18 C39         -0.3230     3.4450     2.2710 ca         1 336       0.470600
     19 C40         -1.5960     1.7290     3.7880 ca         1 336      -0.029300
     20 C41         -1.2920     4.3220     2.0440 ca         1 336      -0.184600
     21 C42         -2.8360     2.2000     3.6990 ca         1 336      -0.060300
     22 C43          5.5650    -0.0160    -2.8800 c3         1 336      -0.099900
     23 C46          6.0060     0.0110    -4.3470 c3         1 336       0.000000
     24 C49          4.0360    -0.0160    -2.8110 c3         1 336      -0.076700
     25 C51          3.4930    -1.2680    -3.5010 c3         1 336      -0.099900
     26 N54          5.3710    -1.1100    -5.0520 n          1 336      -0.460800
     27 C55          6.1130    -1.9880    -5.7570 c          1 336       0.580100
     28 N56          7.4570    -1.9080    -5.7290 nz         1 336      -0.858400
     29 O57          5.5680    -2.8510    -6.4180 o          1 336      -0.475100
     30 C58          3.9100    -1.2520    -4.9800 c3         1 336       0.000000
     31 C61          3.6620    -0.0070    -1.1450 c3         1 336      -0.140400
     32 O64          1.5600    -0.0120    -2.2160 o          1 336      -0.639100
     33 C65          2.1550    -0.0060    -1.1610 c          1 336       0.662100
     34 H11         -0.3640     0.1100    -1.0140 h1         1 336       0.067200
     35 H12         -0.3680    -0.9330     0.4090 h1         1 336       0.067200
     36 H4          -0.1300     0.1340     2.6990 hc         1 336       0.073700
     37 H61          1.9240     2.1090     1.6400 hc         1 336       0.067450
     38 H62          2.1020     1.1380     3.1140 hc         1 336       0.067450
     39 H91          1.5360    -0.6190     1.9050 h1         1 336       0.067200
     40 H92          3.2370    -0.2120     1.3120 h1         1 336       0.067200
     41 H131        -0.2050     2.1060     0.3870 hc         1 336       0.067450
     42 H132        -1.5710     1.1260     0.9410 hc         1 336       0.067450
     43 H17         -1.8340     6.0610     0.8630 ha         1 336       0.156000
     44 H20         -4.8310     2.0670     4.5130 ha         1 336       0.150000
     45 H221        -3.5760     2.8140     1.8160 hc         1 336       0.061700
     46 H222        -4.4250     3.5090     3.2140 hc         1 336       0.061700
     47 H251        -2.5250     4.9240     3.6490 hc         1 336       0.064200
     48 H252        -3.2210     5.1800     2.0210 hc         1 336       0.064200
     49 H30          2.1540     4.6360     0.4090 h4         1 336       0.033100
     50 H33          0.3250     2.4150     3.9140 hc         1 336       0.094700
     51 H35         -2.0130    -0.6060     6.2340 ha         1 336       0.164000
     52 H461         6.9380     0.4750    -4.6480 h1         1 336       0.116950
     53 H462         5.1660     0.6820    -4.2120 h1         1 336       0.116950
     54 H49          3.6540     0.8650    -3.3140 hc         1 336       0.081700
     55 H511         3.9010    -2.1500    -3.0220 hc         1 336       0.080450
     56 H512         2.4120    -1.2780    -3.4330 hc         1 336       0.080450
     57 H561         6.7550    -1.5190    -5.1310 hn         1 336       0.523800
     58 H562         7.9060    -1.3330    -6.4150 hn         1 336       0.523800
     59 H581         3.6100    -2.1790    -5.4550 h1         1 336       0.116950
     60 H582         3.4350    -0.4210    -5.4870 h1         1 336       0.116950
     61 H611         4.0810     0.8800    -0.6850 hc         1 336       0.074700
     62 H612         4.0800    -0.8890    -0.6760 hc         1 336       0.074700
     63 Br37         0.5380     6.8620    -0.7280 br         1 336      -0.075100
     64 Cl16        -4.8130    -0.0030     6.4420 cl         1 336      -0.082400
     65 H431         5.9390    -0.9200    -2.4150 hc         1 336       0.080450
     66 H563         7.9760    -2.6940    -5.3910 hn         1 336       0.523800
     67 Br38         0.4410    -0.0410     4.7280 br         1 336      -0.082100
     68 H432         5.9420     0.8680    -2.3810 hc         1 336       0.080450
@<TRIPOS>BOND
     1     1     5 1   
     2     1     6 1   
     3     1    34 1   
     4     1    35 1   
     5     2     3 1   
     6     2     6 1   
     7     2    16 1   
     8     2    36 1   
     9     3     4 1   
    10     3    37 1   
    11     3    38 1   
    12     4     5 1   
    13     4    39 1   
    14     4    40 1   
    15     5    33 1   
    16     6    41 1   
    17     6    42 1   
    18    64     8 1   
    19     7    13 ar  
    20     7    20 ar  
    21     7    43 1   
    22     8     9 ar  
    23     8    17 ar  
    24     9    21 ar  
    25     9    44 1   
    26    10    11 1   
    27    10    21 1   
    28    10    45 1   
    29    10    46 1   
    30    11    20 1   
    31    11    47 1   
    32    11    48 1   
    33    12    17 ar  
    34    12    67 1   
    35    12    19 ar  
    36    13    14 ar  
    37    13    63 1   
    38    14    15 ar  
    39    14    49 1   
    40    15    18 ar  
    41    16    18 1   
    42    16    19 1   
    43    16    50 1   
    44    17    51 1   
    45    18    20 ar  
    46    19    21 ar  
    47    22    23 1   
    48    22    24 1   
    49    22    65 1   
    50    22    68 1   
    51    23    26 1   
    52    23    52 1   
    53    23    53 1   
    54    24    25 1   
    55    24    31 1   
    56    24    54 1   
    57    25    30 1   
    58    25    55 1   
    59    25    56 1   
    60    26    27 1   
    61    26    30 1   
    62    27    28 1   
    63    27    29 2   
    64    28    57 1   
    65    28    58 1   
    66    30    59 1   
    67    30    60 1   
    68    31    33 1   
    69    31    61 1   
    70    31    62 1   
    71    32    33 2   
    72    66    28 1   
@<TRIPOS>SUBSTRUCTURE
     1 336         1 TEMP              0 ****  ****    0 ROOT
