@<TRIPOS>MOLECULE
molecule
   76    79     1     0     0
SMALL
bcc


@<TRIPOS>ATOM
      1 N1           0.0000     0.0000     0.0000 ns         1 337      -0.459100
      2 C4           3.6810     0.0000     0.0000 ca         1 337      -0.026300
      3 C5           1.5890     0.0000     1.8240 ca         1 337       0.030100
      4 C6           2.9060     0.0000     2.2720 ca         1 337       0.147600
      5 C7           3.9490     0.0000     1.3560 ca         1 337      -0.193000
      6 C8          -4.2550     4.9780   -11.4180 ca         1 337      -0.115500
      7 C10          4.8160    -0.0060    -0.9910 c3         1 337      -0.021700
      8 C13          5.6730    -1.2560    -0.7770 c3         1 337      -0.083767
      9 C15         -5.1480     5.7830   -12.1010 ca         1 337      -0.128000
     10 C17         -6.5140     3.8720   -12.5670 ca         1 337      -0.128000
     11 C20          4.1840     2.5520     3.7390 c3         1 337      -0.244300
     12 C22         -3.9410    -0.3600    -1.5000 ca         1 337      -0.129000
     13 C24         -5.6440     0.0160    -3.2930 c3         1 337      -0.057800
     14 C26         -1.6620     0.3600    -1.7600 ca         1 337      -0.146600
     15 C1          -4.4900     3.6200   -11.3110 ca         1 337      -0.124300
     16 C2           1.3240    -0.0000     0.4580 ca         1 337       0.062600
     17 C3           2.3740    -0.0000    -0.4510 ca         1 337      -0.152000
     18 C9           0.0740    -1.2730     3.1450 c3         1 337       0.119700
     19 C11          4.2530    -0.0120    -2.4130 c3         1 337      -0.083767
     20 C12          5.6770     1.2430    -0.7880 c3         1 337      -0.083767
     21 C14         -0.2880     0.4740    -1.2280 c          1 337       0.679700
     22 C16         -6.2770     5.2300   -12.6750 ca         1 337      -0.125000
     23 C18         -5.6200     3.0670   -11.8840 ca         1 337      -0.115500
     24 C23         -4.2410     0.1340    -2.7560 ca         1 337      -0.031300
     25 C25         -2.6600    -0.2510    -0.9980 ca         1 337      -0.091000
     26 O15          0.5820     0.9940    -1.8990 o          1 337      -0.590100
     27 N16          3.1790    -0.0000     3.6450 nu         1 337      -0.758500
     28 S17          4.4860     0.8320     4.2290 s6         1 337       1.328900
     29 O18          5.5910     0.2960     3.5130 o          1 337      -0.629300
     30 O19          4.3900     0.6910     5.6390 o          1 337      -0.629300
     31 C47         -1.9630     0.8490    -3.0320 ca         1 337      -0.060000
     32 C48         -3.2540     0.7390    -3.5230 ca         1 337      -0.010200
     33 N49         -3.5650     1.2380    -4.7970 na         1 337       0.139300
     34 C50         -2.8800     1.0130    -5.9390 cc         1 337      -0.143600
     35 N51         -4.6480     2.0640    -5.1300 nc         1 337      -0.177800
     36 N52         -4.5970     2.3110    -6.3930 nd         1 337      -0.326000
     37 C53         -3.5320     1.6890    -6.9300 cd         1 337       0.191800
     38 C61         -3.1380     1.7290    -8.3520 c          1 337       0.603600
     39 O62         -2.1530     1.1230    -8.7260 o          1 337      -0.617100
     40 N75         -3.8700     2.4380    -9.2350 ns         1 337      -0.568900
     41 C76         -3.4780     2.4780   -10.6450 c3         1 337       0.174300
     42 HN1         -0.7330    -0.3420     0.5890 hn         1 337       0.331500
     43 H7           4.9740    -0.0000     1.7040 ha         1 337       0.188000
     44 H13          6.2420    -1.1510     0.1390 hc         1 337       0.040367
     45 H13A         6.3520    -1.3760    -1.6120 hc         1 337       0.040367
     46 H13B         5.0310    -2.1260    -0.7060 hc         1 337       0.040367
     47 H15         -4.9630     6.8470   -12.1850 ha         1 337       0.132000
     48 H17         -7.3990     3.4380   -13.0170 ha         1 337       0.132000
     49 H20          4.8030     2.7980     2.8840 h1         1 337       0.104700
     50 H20A         3.1410     2.6750     3.4760 h1         1 337       0.104700
     51 H20B         4.4290     3.2100     4.5630 h1         1 337       0.104700
     52 H22         -4.7140    -0.8350    -0.9070 ha         1 337       0.147000
     53 H24         -6.0850     1.0020    -3.3700 hc         1 337       0.060033
     54 H24A        -5.6190    -0.4460    -4.2730 hc         1 337       0.060033
     55 H24B        -6.2380    -0.5930    -2.6220 hc         1 337       0.060033
     56 H3           2.1680    -0.0000    -1.5150 ha         1 337       0.185000
     57 H9          -1.0000    -1.3210     3.0140 h1         1 337       0.037033
     58 H9A          0.5440    -2.0580     2.5640 h1         1 337       0.037033
     59 H9B          0.3170    -1.4040     4.1920 h1         1 337       0.037033
     60 H11          3.6340    -0.8900    -2.5530 hc         1 337       0.040367
     61 H11A         5.0690    -0.0280    -3.1250 hc         1 337       0.040367
     62 H11B         3.6560     0.8790    -2.5690 hc         1 337       0.040367
     63 H12          6.3440     1.3630    -1.6330 hc         1 337       0.040367
     64 H12A         5.0370     2.1130    -0.7060 hc         1 337       0.040367
     65 H12B         6.2590     1.1360     0.1200 hc         1 337       0.040367
     66 H16         -6.9770     5.8610   -13.2100 ha         1 337       0.131000
     67 H18         -5.8040     2.0030   -11.8000 ha         1 337       0.134000
     68 H25         -2.4290    -0.6390    -0.0140 ha         1 337       0.132000
     69 HN16         2.6150    -0.5440     4.2670 hn         1 337       0.466800
     70 H47         -1.1920     1.3210    -3.6290 ha         1 337       0.171000
     71 H50         -1.9850     0.4130    -6.0480 h4         1 337       0.208000
     72 HN75        -4.6770     2.9420    -8.9250 hn         1 337       0.340500
     73 H76         -3.6350     1.5250   -11.1380 h1         1 337       0.061700
     74 H76A        -2.4480     2.7870   -10.7780 h1         1 337       0.061700
     75 O8           0.5640    -0.0000     2.7180 os         1 337      -0.348900
     76 H8          -3.3700     5.4120   -10.9680 ha         1 337       0.134000
@<TRIPOS>BOND
     1    16     1 1   
     2     1    21 1   
     3     1    42 1   
     4     7     2 1   
     5     5     2 ar  
     6     2    17 ar  
     7     4     3 ar  
     8     3    16 ar  
     9     3    75 1   
    10     5     4 ar  
    11    27     4 1   
    12     5    43 1   
    13     6     9 ar  
    14     6    15 ar  
    15     6    76 1   
    16     8     7 1   
    17    20     7 1   
    18     7    19 1   
    19     8    44 1   
    20     8    45 1   
    21     8    46 1   
    22     9    22 ar  
    23     9    47 1   
    24    22    10 ar  
    25    23    10 ar  
    26    10    48 1   
    27    11    28 1   
    28    11    49 1   
    29    11    50 1   
    30    11    51 1   
    31    25    12 ar  
    32    12    24 ar  
    33    12    52 1   
    34    24    13 1   
    35    13    53 1   
    36    13    54 1   
    37    13    55 1   
    38    25    14 ar  
    39    21    14 1   
    40    14    31 ar  
    41    41    15 1   
    42    15    23 ar  
    43    17    16 ar  
    44    17    56 1   
    45    75    18 1   
    46    18    57 1   
    47    18    58 1   
    48    18    59 1   
    49    19    60 1   
    50    19    61 1   
    51    19    62 1   
    52    20    63 1   
    53    20    64 1   
    54    20    65 1   
    55    21    26 2   
    56    22    66 1   
    57    23    67 1   
    58    24    32 ar  
    59    25    68 1   
    60    28    27 1   
    61    27    69 1   
    62    29    28 2   
    63    28    30 2   
    64    31    32 ar  
    65    31    70 1   
    66    32    33 1   
    67    33    34 1   
    68    33    35 1   
    69    34    37 2   
    70    34    71 1   
    71    35    36 2   
    72    37    36 1   
    73    37    38 1   
    74    39    38 2   
    75    38    40 1   
    76    40    41 1   
    77    40    72 1   
    78    41    73 1   
    79    41    74 1   
@<TRIPOS>SUBSTRUCTURE
     1 337         1 TEMP              0 ****  ****    0 ROOT
