@<TRIPOS>MOLECULE
338
   32    35     1     0     0
SMALL
bcc


@<TRIPOS>ATOM
      1 C1          0.1450    0.2610   -0.1390 ca        1 338      0.145100
      2 C2          1.5480    0.2140   -0.0550 ca        1 338     -0.148000
      3 C3          2.0550    0.1020    1.2280 ca        1 338      0.070100
      4 C4          1.2350    0.0340    2.4090 ca        1 338      0.019400
      5 C5         -0.1550    0.0850    2.2800 ca        1 338     -0.027000
      6 C6         -0.6880    0.1980    0.9990 ca        1 338     -0.229000
      7 O10         3.3850    0.0350    1.6260 os        1 338     -0.311700
      8 C11         3.3210   -0.0770    3.0570 cc        1 338      0.591200
      9 N12         2.0820   -0.0730    3.5360 nd        1 338     -0.541100
     10 C13         4.6240   -0.1070    3.7080 ca        1 338     -0.121900
     11 C15         4.9090   -1.0160    4.7740 ca        1 338      0.029000
     12 C16         6.1910   -0.9410    5.3830 ca        1 338     -0.065000
     13 C17         7.1510   -0.0020    4.9240 ca        1 338     -0.066000
     14 C18         6.8540    0.8410    3.8800 ca        1 338     -0.155000
     15 C19         5.5850    0.7880    3.2680 ca        1 338     -0.066000
     16 C23         3.9830   -1.9920    5.2330 ca        1 338     -0.148000
     17 C24         4.3050   -2.8380    6.2670 ca        1 338     -0.083000
     18 C25         5.5640   -2.7670    6.8990 ca        1 338     -0.226000
     19 C26         6.4870   -1.8370    6.4610 ca        1 338      0.142100
     20 O30        -0.3710    0.3730   -1.4090 oh        1 338     -0.493100
     21 O31         7.7390   -1.7090    7.0170 oh        1 338     -0.499100
     22 H2          2.1790    0.2640   -0.9490 ha        1 338      0.171000
     23 H5         -0.8080    0.0380    3.1630 ha        1 338      0.155000
     24 H6         -1.7790    0.2400    0.8690 ha        1 338      0.139000
     25 H17         8.1330    0.0290    5.4220 ha        1 338      0.154000
     26 H18         7.5960    1.5650    3.5120 ha        1 338      0.141000
     27 H19         5.3590    1.4690    2.4320 ha        1 338      0.148000
     28 H23         2.9970   -2.0750    4.7530 ha        1 338      0.155000
     29 H24         3.5790   -3.5880    6.6170 ha        1 338      0.137000
     30 H25         5.7990   -3.4490    7.7280 ha        1 338      0.136000
     31 H30        -1.3370    0.3950   -1.3400 ho        1 338      0.423000
     32 H31         7.8160   -2.3610    7.7290 ho        1 338      0.424000
@<TRIPOS>BOND
     1    1    2 ar  
     2    1    6 ar  
     3    1   20 1   
     4    2    3 ar  
     5    2   22 1   
     6    3    4 ar  
     7    3    7 1   
     8    4    5 ar  
     9    4    9 1   
    10    5    6 ar  
    11    5   23 1   
    12    6   24 1   
    13    7    8 1   
    14    8    9 2   
    15    8   10 1   
    16   10   11 ar  
    17   10   15 ar  
    18   11   12 ar  
    19   11   16 ar  
    20   12   13 ar  
    21   12   19 ar  
    22   13   14 ar  
    23   13   25 1   
    24   14   15 ar  
    25   14   26 1   
    26   15   27 1   
    27   16   17 ar  
    28   16   28 1   
    29   17   18 ar  
    30   17   29 1   
    31   18   19 ar  
    32   18   30 1   
    33   19   21 1   
    34   20   31 1   
    35   21   32 1   
@<TRIPOS>SUBSTRUCTURE
     1 338         1 TEMP              0 ****  ****    0 ROOT
