@<TRIPOS>MOLECULE
339
   91    87     1     0     0
SMALL
bcc


@<TRIPOS>ATOM
      1 CX          4.4630    0.2500    0.4060 c2        1 339      0.318000
      2 CY          4.7870   -1.1410   -0.1470 c3        1 339     -0.066000
      3 CZ          4.1510    1.2990   -0.5650 c2        1 339     -0.564000
      4 OX          4.4540    0.4740    1.6250 o         1 339     -0.325000
      5 N1          5.7960   -1.8090    0.6520 n3        1 339     -0.329000
      6 C2          3.4510   -1.8940   -0.3020 c3        1 339     -0.200000
      7 C3          3.5750   -3.0410   -1.2800 c3        1 339     -0.175000
      8 C4          2.2470   -3.8000   -1.3690 c3        1 339     -0.072000
      9 N5          2.2610   -4.9860   -2.1690 n2        1 339     -0.310000
     10 C6          2.2230   -4.9500   -3.4870 c2        1 339      0.162000
     11 N7          2.0140   -3.7910   -4.2910 n3        1 339     -0.344500
     12 N8          2.3710   -6.1820   -4.2080 n3        1 339     -0.344500
     13 N9          3.8080    1.0630   -1.9010 n3        1 339     -0.097000
     14 C10         3.5600    2.1920   -2.6150 c1        1 339     -0.128000
     15 C11         3.7350    3.3230   -1.7790 c2        1 339     -0.588000
     16 S12         4.1550    2.9210   -0.2490 ss        1 339      0.888000
     17 N13         4.5570    3.8400    5.7100 n3        1 339     -0.342000
     18 C14         4.6800    2.5830    4.9990 c3        1 339     -0.106000
     19 C15         5.6210    2.6050    3.7990 c2        1 339      0.159000
     20 O16         6.3260    3.5800    3.5260 o         1 339     -0.322000
     21 C17         3.3220    2.0020    4.5490 c3        1 339     -0.084000
     22 C18         2.5510    1.4030    5.7210 c3        1 339     -0.201000
     23 C19         2.4880    3.0050    3.7820 c3        1 339     -0.234000
     24 N20         2.2740    4.4570    7.8820 n         1 339     -0.298000
     25 C21         1.7050    3.2830    7.2690 c3        1 339     -0.088000
     26 O23         3.5540    1.8560    7.8530 o         1 339     -0.311000
     27 C24         7.9590    6.2220    4.9590 c3        1 339     -0.244000
     28 C25         6.7760    6.8150    5.6780 c3        1 339     -0.201000
     29 C26         5.4700    6.8080    4.9830 c1        1 339     -0.173000
     30 N27         5.3120    6.3990    3.7430 n         1 339     -0.208000
     31 C28         4.0120    6.4010    3.1080 c2        1 339      0.380000
     32 N29         2.9890    7.1700    3.6280 n         1 339     -0.342000
     33 O30         3.8970    5.7470    2.0460 o         1 339     -0.397000
     34 O32         2.1170    5.7090    5.9210 o         1 339     -0.428000
     35 N33         3.6880    6.4140    7.4170 n         1 339     -0.239000
     36 C34         4.4630    6.1980    8.4910 c1        1 339     -0.060000
     37 C35         5.1430    6.0420    9.4700 c1        1 339     -0.128000
     38 C36         6.0880    1.9660   10.1360 c2        1 339     -0.148000
     39 C37         7.2690    2.4830    9.9850 c1        1 339     -0.146000
     40 C38         8.4530    2.9930    9.8250 c2        1 339     -0.224000
     41 C39         6.1690    6.6580   11.5980 c1        1 339      0.240000
     42 C40         5.9360    5.8320   10.5920 c2        1 339     -0.356000
     43 BR41        9.9380    2.0250    9.2570 br        1 339      0.048000
     44 C42         3.5990    9.6440    5.8850 c3        1 339     -0.283000
     45 HY          5.8320   -2.7820    0.4150 hn        1 339      0.157000
     46 HN1         5.1360    1.8430    5.7320 h1        1 339      0.135000
     47 H21A        5.2560   -1.0280   -1.1710 h1        1 339      0.117000
     48 H22         5.6010   -1.7120    1.6300 hn        1 339      0.157000
     49 H31         3.1160   -2.2780    0.6980 hc        1 339      0.095000
     50 H32         2.6600   -1.1840   -0.6590 hc        1 339      0.095000
     51 H41         4.3860   -3.7430   -0.9520 hc        1 339      0.083000
     52 H42         3.8670   -2.6460   -2.2880 hc        1 339      0.083000
     53 HN5         1.9810   -4.1600   -0.3320 h1        1 339      0.083500
     54 H6          1.4420   -3.0700   -1.6770 h1        1 339      0.083500
     55 HN71        2.2790   -3.8740   -5.2470 hn        1 339      0.192000
     56 HN72        2.3380   -2.9460   -3.8750 hn        1 339      0.192000
     57 HN81        2.4060   -6.9790   -3.6040 hn        1 339      0.192000
     58 HN82        1.6780   -6.2960   -4.9190 hn        1 339      0.192000
     59 H10         3.7430    0.1470   -2.2760 hn        1 339      0.255000
     60 H11         3.5980    4.3390   -2.1480 h4        1 339      0.198000
     61 H13         5.4710    4.2120    5.9000 hn        1 339      0.156500
     62 H14         5.6440    1.6710    3.1920 h4        1 339      0.127000
     63 H17         4.0500    4.5060    5.1560 hn        1 339      0.156500
     64 H181        2.9200    0.3540    5.8910 hc        1 339      0.106000
     65 H182        3.5570    1.1470    3.8440 hc        1 339      0.115000
     66 H183        1.4630    1.3440    5.4520 hc        1 339      0.106000
     67 H191        2.0600    3.7920    4.4510 hc        1 339      0.090333
     68 H192        1.6410    2.4830    3.2740 hc        1 339      0.090333
     69 H193        3.1110    3.5100    3.0010 hc        1 339      0.090333
     70 H20         2.8930    4.2480    8.6420 hn        1 339      0.225000
     71 H21         0.9270    2.8800    7.9820 h1        1 339      0.129000
     72 H241        8.8580    6.2340    5.6220 hc        1 339      0.083667
     73 H242        1.1900    3.5710    6.3080 h1        1 339      0.129000
     74 H251        7.7570    5.1620    4.6620 hc        1 339      0.083667
     75 H252        8.2020    6.8040    4.0370 hc        1 339      0.083667
     76 H261        6.6110    6.2770    6.6550 hc        1 339      0.123000
     77 H262        6.9790    7.8940    5.9340 hc        1 339      0.123000
     78 H27         6.0330    5.9890    3.1710 hn        1 339      0.223000
     79 H291        2.0760    6.9070    3.3270 hn        1 339      0.239500
     80 H292        3.0610    7.4620    4.5830 hn        1 339      0.239500
     81 H33         4.0780    6.9820    6.6700 hn        1 339      0.295000
     82 H34         4.4650    8.9700    5.6920 hc        1 339      0.071250
     83 H36         5.7600    1.5300   11.0920 ha        1 339      0.156000
     84 H37         5.3460    1.9360    9.3190 ha        1 339      0.156000
     85 H39         8.6780    4.0520   10.0130 h4        1 339      0.160000
     86 H40         6.4360    4.8290   10.6400 ha        1 339      0.204000
     87 H421        3.9360   10.5250    6.4720 hc        1 339      0.071250
     88 H422        2.8200    9.0940    6.4580 hc        1 339      0.071250
     89 H423        3.1740    9.9850    4.9150 hc        1 339      0.071250
     90 C22         2.7020    2.1590    7.0100 c2        1 339      0.227000
     91 C31         2.6860    5.4950    7.0220 c2        1 339      0.399000
@<TRIPOS>BOND
     1    1    2 1
     2    1    3 1
     3    1    4 1
     4    2    5 1
     5    2    6 1
     6    2   47 1
     7    3   13 1
     8    3   16 1
     9    5   45 1
    10    5   48 1
    11    6    7 1
    12    6   49 1
    13    6   50 1
    14    7    8 1
    15    7   51 1
    16    7   52 1
    17    8    9 1
    18    8   53 1
    19    8   54 1
    20    9   10 1
    21   10   11 1
    22   10   12 1
    23   11   55 1
    24   11   56 1
    25   12   57 1
    26   12   58 1
    27   13   14 1
    28   13   59 1
    29   14   15 1
    30   15   16 1
    31   15   60 1
    32   17   18 1
    33   17   61 1
    34   17   63 1
    35   18   19 1
    36   18   21 1
    37   18   46 1
    38   19   20 1
    39   19   62 1
    40   21   22 1
    41   21   23 1
    42   21   65 1
    43   22   64 1
    44   22   66 1
    45   22   90 1
    46   23   67 1
    47   23   68 1
    48   23   69 1
    49   24   25 1
    50   24   70 1
    51   24   91 1
    52   25   71 1
    53   25   73 1
    54   25   90 1
    55   26   90 1
    56   27   28 1
    57   27   72 1
    58   27   74 1
    59   27   75 1
    60   28   29 1
    61   28   76 1
    62   28   77 1
    63   29   30 1
    64   30   31 1
    65   30   78 1
    66   31   32 1
    67   31   33 1
    68   32   79 1
    69   32   80 1
    70   34   91 1
    71   35   36 1
    72   35   81 1
    73   35   91 1
    74   36   37 1
    75   37   42 1
    76   38   39 1
    77   38   83 1
    78   38   84 1
    79   39   40 1
    80   40   43 1
    81   40   85 1
    82   41   42 1
    83   42   86 1
    84   44   82 1
    85   44   87 1
    86   44   88 1
    87   44   89 1
@<TRIPOS>SUBSTRUCTURE
     1 339         1 TEMP              0 ****  ****    0 ROOT
