@<TRIPOS>MOLECULE
33A
   44    47     1     0     0
SMALL
bcc


@<TRIPOS>ATOM
      1 C2           0.0000     0.0000     0.0000 ca         1 33A      -0.043600
      2 C3           1.3940     0.0000     0.0000 ca         1 33A      -0.105000
      3 C4           2.0920     0.0000     1.2080 ca         1 33A      -0.091000
      4 C5           1.3940     0.0010     2.4160 ca         1 33A      -0.088000
      5 C6          -0.0000    -0.0000     2.4160 ca         1 33A       0.030000
      6 C7          -0.6980    -0.0000     1.2080 ca         1 33A      -0.100000
      7 C8          -0.7180     0.0010     3.6600 cc         1 33A      -0.228300
      8 Cl1         -0.8600    -0.0000    -1.4910 cl         1 33A      -0.023400
      9 C9          -1.0940    -1.1440     4.3130 cd         1 33A      -0.296300
     10 N10         -1.7420    -0.7320     5.4410 na         1 33A       0.507400
     11 N12         -1.8140     0.6040     5.5670 nd         1 33A      -0.668800
     12 C13         -1.1860     1.0470     4.4750 cc         1 33A       0.457800
     13 C14         -1.0230     2.4580     4.1890 cc         1 33A      -0.205500
     14 C15         -0.9140     3.4880     5.0940 cd         1 33A      -0.294300
     15 N16         -0.7770     4.6520     4.3850 na         1 33A       0.469900
     16 C18         -0.7960     4.3770     3.0420 cd         1 33A      -0.397900
     17 C19         -0.9490     3.0160     2.8920 cc         1 33A      -0.120000
     18 C20         -0.6750     5.3740     2.0250 c          1 33A       0.643700
     19 O21         -0.5200     6.5880     2.3110 o          1 33A      -0.679100
     20 N22         -0.7130     4.9530     0.6790 ns         1 33A      -0.206900
     21 C23         -0.5810     5.8340    -0.4590 c3         1 33A       0.114300
     22 C24         -0.6610     5.0900    -1.7590 ca         1 33A      -0.122300
     23 C25          0.5000     4.5910    -2.3390 ca         1 33A      -0.082500
     24 C26          0.4260     3.8990    -3.5480 ca         1 33A      -0.103000
     25 C27         -0.8090     3.7100    -4.1680 ca         1 33A      -0.093000
     26 C28         -1.9700     4.2130    -3.5800 ca         1 33A      -0.103000
     27 C29         -1.8950     4.9060    -2.3710 ca         1 33A      -0.082500
     28 H3           1.9360    -0.0000    -0.9380 ha         1 33A       0.114000
     29 H4           3.1760     0.0000     1.2080 ha         1 33A       0.106000
     30 H5           1.9360     0.0010     3.3550 ha         1 33A       0.112000
     31 H7          -1.7820    -0.0010     1.2080 ha         1 33A       0.121000
     32 H9          -0.9140    -2.1650     3.9990 h4         1 33A       0.156000
     33 HN10        -2.1280    -1.3660     6.1120 hn         1 33A       0.129700
     34 H15         -0.9340     3.3960     6.1730 h4         1 33A       0.157000
     35 HN16        -0.6780     5.5640     4.7860 hn         1 33A       0.123700
     36 H19         -1.0020     2.4750     1.9550 ha         1 33A       0.136000
     37 HN22        -0.8390     3.9760     0.5000 hn         1 33A       0.178500
     38 H231        -1.3740     6.5720    -0.4260 h1         1 33A       0.022700
     39 H232         0.3740     6.3420    -0.4020 h1         1 33A       0.022700
     40 H25          1.4570     4.7400    -1.8540 ha         1 33A       0.109000
     41 H26          1.3270     3.5080    -4.0040 ha         1 33A       0.104000
     42 H27         -0.8670     3.1720    -5.1070 ha         1 33A       0.103000
     43 H28         -2.9290     4.0670    -4.0620 ha         1 33A       0.104000
     44 H29         -2.7940     5.2980    -1.9120 ha         1 33A       0.109000
@<TRIPOS>BOND
     1     1     2 ar  
     2     1     6 ar  
     3     1     8 1   
     4     2     3 ar  
     5     2    28 1   
     6     3     4 ar  
     7     3    29 1   
     8     4     5 ar  
     9     4    30 1   
    10     5     6 ar  
    11     5     7 1   
    12     6    31 1   
    13     7     9 2   
    14     7    12 1   
    15     9    10 1   
    16     9    32 1   
    17    10    11 1   
    18    10    33 1   
    19    11    12 2   
    20    12    13 1   
    21    13    14 2   
    22    13    17 1   
    23    14    15 1   
    24    14    34 1   
    25    15    16 1   
    26    15    35 1   
    27    16    17 2   
    28    16    18 1   
    29    17    36 1   
    30    18    19 2   
    31    18    20 1   
    32    20    21 1   
    33    20    37 1   
    34    21    22 1   
    35    21    38 1   
    36    21    39 1   
    37    22    23 ar  
    38    22    27 ar  
    39    23    24 ar  
    40    23    40 1   
    41    24    25 ar  
    42    24    41 1   
    43    25    26 ar  
    44    25    42 1   
    45    26    27 ar  
    46    26    43 1   
    47    27    44 1   
@<TRIPOS>SUBSTRUCTURE
     1 33A         1 TEMP              0 ****  ****    0 ROOT
