@<TRIPOS>MOLECULE
molecule
   44    45     1     0     0
SMALL
bcc


@<TRIPOS>ATOM
      1 C1           0.0000     0.0000     0.0000 c3         1 33B      -0.026500
      2 C2           1.5070     0.0000     0.0000 c          1 33B       0.650600
      3 O2           2.1140     0.0000     1.0500 o          1 33B      -0.589100
      4 N3           2.1810     0.0010    -1.1670 ns         1 33B      -0.450100
      5 C4           3.5730     0.1050    -1.1700 ca         1 33B       0.145600
      6 C5           4.2190     0.8010    -0.1540 ca         1 33B      -0.178500
      7 C6           4.3110    -0.4930    -2.1870 ca         1 33B      -0.307000
      8 S6           3.4860    -1.3800    -3.4680 s6         1 33B       1.328600
      9 C7           5.5910     0.9050    -0.1520 ca         1 33B      -0.082000
     10 C8           5.6840    -0.3930    -2.1930 ca         1 33B       0.034500
     11 C9           6.3370     0.3090    -1.1760 ca         1 33B       0.053900
     12 N10          7.6990     0.4110    -1.1790 ne         1 33B      -0.232900
     13 N11          8.2990     1.0600    -0.2400 nf         1 33B      -0.232900
     14 C12          9.6600     1.1620    -0.2430 ca         1 33B       0.053900
     15 C13         10.4060     0.5610    -1.2630 ca         1 33B      -0.082000
     16 C14         10.3130     1.8690     0.7710 ca         1 33B       0.034500
     17 C15         11.7790     0.6660    -1.2620 ca         1 33B      -0.178500
     18 C16         11.6870     1.9690     0.7650 ca         1 33B      -0.307000
     19 C17         12.4240     1.3670    -0.2480 ca         1 33B       0.145600
     20 S17         12.5100     2.8620     2.0420 s6         1 33B       1.328600
     21 N18         13.8170     1.4700    -0.2510 ns         1 33B      -0.450100
     22 C19         14.5680     0.4520    -0.7170 c          1 33B       0.650600
     23 O19         14.0330    -0.5250    -1.1970 o          1 33B      -0.589100
     24 C20         16.0710     0.5270    -0.6400 c3         1 33B      -0.026500
     25 O61          2.3040    -1.9140    -2.8900 o          1 33B      -0.713867
     26 O62          3.0360    -0.3600    -4.5030 o          1 33B      -0.713867
     27 O63          4.4740    -2.1830    -4.0980 o          1 33B      -0.713867
     28 O71         12.4760     4.2300     1.6610 o          1 33B      -0.713867
     29 O72         11.6560     2.7440     3.2970 o          1 33B      -0.713867
     30 O73         13.7160     2.1590     2.3100 o          1 33B      -0.713867
     31 HN3          1.6800    -0.0250    -2.0330 hn         1 33B       0.350000
     32 H5           3.6410     1.2610     0.6380 ha         1 33B       0.150500
     33 H7           6.0930     1.4480     0.6390 ha         1 33B       0.150000
     34 H8           6.2570    -0.8570    -2.9860 ha         1 33B       0.165500
     35 Cl1         -0.6000    -0.0010     1.7010 cl         1 33B      -0.186400
     36 H1          -0.3610     0.8850    -0.5100 h1         1 33B       0.082450
     37 H13          9.9040     0.0160    -2.0530 ha         1 33B       0.150000
     38 H14          9.7390     2.3390     1.5610 ha         1 33B       0.165500
     39 H15         12.3580     0.2010    -2.0510 ha         1 33B       0.150500
     40 HN18        14.2590     2.2540     0.1870 hn         1 33B       0.350000
     41 Cl2         16.7840    -0.9740    -1.3380 cl         1 33B      -0.186400
     42 H20         16.3750     0.6240     0.3950 h1         1 33B       0.082450
     43 H1A         -0.3610    -0.8840    -0.5110 h1         1 33B       0.082450
     44 H20A        16.4190     1.3860    -1.2000 h1         1 33B       0.082450
@<TRIPOS>BOND
     1     1     2 1
     2     1    36 1
     3     1    43 1
     4     2     4 1
     5     3     2 2
     6     4    31 1
     7     5     4 1
     8     5     6 ar
     9     6    32 1
    10     7     5 ar
    11     8     7 1
    12     8    26 1
    13     9     6 ar
    14     9    33 1
    15    10     7 ar
    16    10    11 ar
    17    11     9 ar
    18    12    11 1
    19    12    13 2
    20    14    13 1
    21    14    15 ar
    22    15    37 1
    23    16    14 ar
    24    17    15 ar
    25    17    39 1
    26    18    16 ar
    27    18    19 ar
    28    19    17 ar
    29    20    18 1
    30    21    19 1
    31    21    22 1
    32    22    23 2
    33    24    22 1
    34    24    41 1
    35    24    44 1
    36    25     8 1
    37    27     8 1
    38    28    20 1
    39    29    20 1
    40    30    20 1
    41    34    10 1
    42    35     1 1
    43    38    16 1
    44    40    21 1
    45    42    24 1
@<TRIPOS>SUBSTRUCTURE
     1 33B         1 TEMP              0 ****  ****    0 ROOT
