@<TRIPOS>MOLECULE
33B
   44    45     1     0     0
SMALL
bcc


@<TRIPOS>ATOM
      1 C1           0.0000     0.0000     0.0000 c3         1 33B       0.006000
      2 C2           1.5070     0.0000     0.0000 c          1 33B       0.540600
      3 O2           2.1140     0.0000     1.0500 o          1 33B      -0.647600
      4 N3           2.1810     0.0010    -1.1670 ns         1 33B       0.000400
      5 C4           3.5730     0.1050    -1.1700 ca         1 33B      -0.000900
      6 C5           4.2190     0.8010    -0.1540 ca         1 33B      -0.167000
      7 C6           4.3110    -0.4930    -2.1870 ca         1 33B      -0.147500
      8 S6           3.4860    -1.3800    -3.4680 s6         1 33B       1.035100
      9 C7           5.5910     0.9050    -0.1520 ca         1 33B      -0.061500
     10 C8           5.6840    -0.3930    -2.1930 ca         1 33B       0.063000
     11 C9           6.3370     0.3090    -1.1760 ca         1 33B       0.009400
     12 N10          7.6990     0.4110    -1.1790 ne         1 33B      -0.181400
     13 N11          8.2990     1.0600    -0.2400 nf         1 33B      -0.181400
     14 C12          9.6600     1.1620    -0.2430 ca         1 33B       0.009400
     15 C13         10.4060     0.5610    -1.2630 ca         1 33B      -0.061500
     16 C14         10.3130     1.8690     0.7710 ca         1 33B       0.063000
     17 C15         11.7790     0.6660    -1.2620 ca         1 33B      -0.167000
     18 C16         11.6870     1.9690     0.7650 ca         1 33B      -0.147500
     19 C17         12.4240     1.3670    -0.2480 ca         1 33B      -0.000900
     20 S17         12.5100     2.8620     2.0420 s6         1 33B       1.035100
     21 N18         13.8170     1.4700    -0.2510 ns         1 33B       0.000400
     22 C19         14.5680     0.4520    -0.7170 c          1 33B       0.540600
     23 O19         14.0330    -0.5250    -1.1970 o          1 33B      -0.647600
     24 C20         16.0710     0.5270    -0.6400 c3         1 33B       0.006000
     25 O61          2.3040    -1.9140    -2.8900 o          1 33B      -0.661367
     26 O62          3.0360    -0.3600    -4.5030 o          1 33B      -0.661367
     27 O63          4.4740    -2.1830    -4.0980 o          1 33B      -0.661367
     28 O71         12.4760     4.2300     1.6610 o          1 33B      -0.661367
     29 O72         11.6560     2.7440     3.2970 o          1 33B      -0.661367
     30 O73         13.7160     2.1590     2.3100 o          1 33B      -0.661367
     31 HN3          1.6800    -0.0250    -2.0330 hn         1 33B       0.207000
     32 H5           3.6410     1.2610     0.6380 ha         1 33B       0.135500
     33 H7           6.0930     1.4480     0.6390 ha         1 33B       0.120000
     34 H8           6.2570    -0.8570    -2.9860 ha         1 33B       0.132000
     35 Cl1         -0.6000    -0.0010     1.7010 cl         1 33B      -0.128400
     36 H1          -0.3610    -0.8840    -0.5110 h1         1 33B       0.035200
     37 H13          9.9040     0.0160    -2.0530 ha         1 33B       0.120000
     38 H14          9.7390     2.3390     1.5610 ha         1 33B       0.132000
     39 H15         12.3580     0.2010    -2.0510 ha         1 33B       0.135500
     40 HN18        14.2590     2.2540     0.1870 hn         1 33B       0.207000
     41 Cl2         16.7840    -0.9740    -1.3380 cl         1 33B      -0.128400
     42 H20         16.4190     1.3860    -1.2000 h1         1 33B       0.035200
     43 H1A         -0.3610     0.8850    -0.5100 h1         1 33B       0.035200
     44 H20A        16.3750     0.6240     0.3950 h1         1 33B       0.035200
@<TRIPOS>BOND
     1     1     2 1   
     2     1    35 1   
     3     1    36 1   
     4     1    43 1   
     5     2     3 2   
     6     2     4 1   
     7     4     5 1   
     8     4    31 1   
     9     5     6 ar  
    10     5     7 ar  
    11     6     9 ar  
    12     6    32 1   
    13     7     8 1   
    14     7    10 ar  
    15     8    25 1   
    16     8    26 1   
    17     8    27 1   
    18     9    11 ar  
    19     9    33 1   
    20    10    11 ar  
    21    10    34 1   
    22    11    12 1   
    23    12    13 2   
    24    13    14 1   
    25    14    15 ar  
    26    14    16 ar  
    27    15    17 ar  
    28    15    37 1   
    29    16    18 ar  
    30    16    38 1   
    31    17    19 ar  
    32    17    39 1   
    33    18    19 ar  
    34    18    20 1   
    35    19    21 1   
    36    20    28 1   
    37    20    29 1   
    38    20    30 1   
    39    21    22 1   
    40    21    40 1   
    41    22    23 2   
    42    22    24 1   
    43    24    41 1   
    44    24    42 1   
    45    24    44 1   
@<TRIPOS>SUBSTRUCTURE
     1 33B         1 TEMP              0 ****  ****    0 ROOT
