@<TRIPOS>MOLECULE
molecule
   52    57     1     0     0
SMALL
bcc


@<TRIPOS>ATOM
      1 CAF          0.0000     0.0000     0.0000 ca         1 33C      -0.256300
      2 CAH          1.3930     0.0000     0.0000 ca         1 33C       0.429200
      3 CAI          1.5680     0.0030     4.7140 ca         1 33C      -0.126000
      4 CAJ          6.5250    -1.4320     5.2730 ca         1 33C      -0.076500
      5 CAD         11.7230    -2.1600     6.1930 c3         1 33C      -0.096400
      6 CAE         11.8200    -0.6310     6.3960 c3         1 33C      -0.096400
      7 CAL          7.8970    -1.5060     5.1770 ca         1 33C      -0.121000
      8 CAN         -0.6810     0.0010     1.1830 ca         1 33C      -0.077000
      9 CAS          4.3240    -0.6620     4.4010 c          1 33C       0.676700
     10 CAO         -0.5710     0.0010     3.6330 ca         1 33C      -0.132000
     11 CAP         13.8460    -1.4020     5.3480 c3         1 33C      -0.085400
     12 CAW          8.5550    -0.8980     4.1140 ca         1 33C       0.057600
     13 CAV          5.7940    -0.7440     4.3000 ca         1 33C      -0.142600
     14 CBB         12.8840    -0.1620     5.3580 c3         1 33C      -0.060700
     15 CBA         12.7370    -2.4710     5.0510 c3         1 33C      -0.060700
     16 CAZ          1.4770     0.0010     2.3060 ca         1 33C       0.399600
     17 CAY          0.0620     0.0010     2.3780 ca         1 33C      -0.139300
     18 CAU         10.7390     0.0990     4.1190 c          1 33C       0.716500
     19 CAX          2.2250     0.0020     3.5040 ca         1 33C       0.011300
     20 NAQ          2.0820     0.0000     1.1150 nb         1 33C      -0.692000
     21 CAG          0.1770     0.0010     4.7700 ca         1 33C      -0.105000
     22 NAR          3.6200     0.0030     3.4610 ns         1 33C      -0.457100
     23 OAA          3.7460    -1.1920     5.3290 o          1 33C      -0.599100
     24 CAK          6.4590    -0.1340     3.2340 ca         1 33C      -0.076500
     25 CAM          7.8310    -0.2120     3.1440 ca         1 33C      -0.121000
     26 NBC          9.9470    -0.9750     4.0200 n          1 33C      -0.405600
     27 CAT         10.5960    -2.1290     3.8250 c          1 33C       0.716500
     28 OAB         10.0730    -3.2150     3.7080 o          1 33C      -0.577000
     29 CBD         12.0840    -1.8660     3.7720 c3         1 33C      -0.159700
     30 CBE         12.1840    -0.3270     3.9760 c3         1 33C      -0.159700
     31 H1          -0.5420     0.0000    -0.9380 ha         1 33C       0.137000
     32 H2           1.9200    -0.0010    -0.9460 h4         1 33C       0.021100
     33 H3           2.1410     0.0020     5.6340 ha         1 33C       0.172000
     34 H4           6.0130    -1.9060     6.1020 ha         1 33C       0.150000
     35 H5          10.7200    -2.4380     5.8930 hc         1 33C       0.056700
     36 H6          12.0050    -2.6800     7.1000 hc         1 33C       0.056700
     37 H7          10.8640    -0.1620     6.1950 hc         1 33C       0.056700
     38 H8          12.1490    -0.4050     7.4030 hc         1 33C       0.056700
     39 H9           8.4640    -2.0390     5.9310 ha         1 33C       0.145500
     40 H10         -1.7640     0.0010     1.2020 ha         1 33C       0.141000
     41 H11         -1.6520    -0.0010     3.6950 ha         1 33C       0.133000
     42 H12         14.3100    -1.5600     6.3140 hc         1 33C       0.057700
     43 H13         14.5730    -1.3420     4.5470 hc         1 33C       0.057700
     44 H14         13.3510     0.7970     5.5480 hc         1 33C       0.091200
     45 H15         13.0770    -3.4970     4.9770 hc         1 33C       0.091200
     46 H16         -0.3170     0.0010     5.7340 ha         1 33C       0.136000
     47 H17          4.0990     0.5370     2.7630 hn         1 33C       0.340500
     48 H18          5.8970     0.4010     2.4780 ha         1 33C       0.150000
     49 H19          8.3480     0.2600     2.3170 ha         1 33C       0.145500
     50 H20         12.5470    -2.2030     2.8520 hc         1 33C       0.099200
     51 H21         12.7020     0.1760     3.1690 hc         1 33C       0.099200
     52 OAC         10.3590     1.2370     4.2950 o          1 33C      -0.577000
@<TRIPOS>BOND
     1     6     5 1
     2     6    14 1
     3     5    15 1
     4     1     2 ar
     5     1     8 ar
     6     2    20 ar
     7     8    17 ar
     8    11    14 1
     9    11    15 1
    10    20    16 ar
    11    14    30 1
    12    15    29 1
    13    17    16 ar
    14    17    10 ar
    15    16    19 ar
    16     4     7 ar
    17     4    13 ar
    18     7    12 ar
    19    10    21 ar
    20    19    22 1
    21    19     3 ar
    22    22     9 1
    23    21     3 ar
    24    30    29 1
    25    30    18 1
    26    29    27 1
    27    27    28 2
    28    27    26 1
    29    18    52 2
    30    18    26 1
    31    26    12 1
    32    12    25 ar
    33    13     9 1
    34    13    24 ar
    35     9    23 2
    36    24    25 ar
    37     1    31 1
    38     2    32 1
    39     3    33 1
    40     4    34 1
    41     5    35 1
    42     5    36 1
    43     6    37 1
    44     6    38 1
    45     7    39 1
    46     8    40 1
    47    10    41 1
    48    11    42 1
    49    11    43 1
    50    14    44 1
    51    15    45 1
    52    21    46 1
    53    22    47 1
    54    24    48 1
    55    25    49 1
    56    29    50 1
    57    30    51 1
@<TRIPOS>SUBSTRUCTURE
     1 33C         1 TEMP              0 ****  ****    0 ROOT
