@<TRIPOS>MOLECULE
molecule
   21    20     1     0     0
SMALL
bcc


@<TRIPOS>ATOM
      1 C1           0.0000     0.0000     0.0000 c3         1 33D       0.136400
      2 O1           1.4300     0.0000     0.0000 oh         1 33D      -0.613800
      3 C3          -2.0400     0.0000     1.4420 c3         1 33D      -0.072000
      4 C5          -2.5500     1.2490     0.7210 c3         1 33D      -0.083100
      5 C4          -2.5500    -1.2490     0.7210 c3         1 33D      -0.083100
      6 C2          -0.5090     0.0000     1.4420 c3         1 33D      -0.069400
      7 C6          -2.5500     0.0000     2.8850 c3         1 33D      -0.083100
      8 HC1         -0.3610    -0.8850    -0.5110 h1         1 33D       0.021700
      9 HC2         -0.3610     0.8850    -0.5110 h1         1 33D       0.021700
     10 H1           1.7440    -0.0000    -0.8890 ho         1 33D       0.400000
     11 HC3         -0.1480     0.8850     1.9530 hc         1 33D       0.054700
     12 HC4         -0.1480    -0.8850     1.9530 hc         1 33D       0.054700
     13 H41         -3.5930    -1.4080     0.9670 hc         1 33D       0.035144
     14 H42         -2.4490    -1.1150    -0.3500 hc         1 33D       0.035144
     15 H43         -1.9700    -2.1090     1.0330 hc         1 33D       0.035144
     16 H61         -3.6330     0.0000     2.8850 hc         1 33D       0.035144
     17 H62         -2.1890     0.8840     3.3950 hc         1 33D       0.035144
     18 H63         -2.1890    -0.8840     3.3950 hc         1 33D       0.035144
     19 H51         -2.4490     1.1150    -0.3500 hc         1 33D       0.035144
     20 H52         -1.9700     2.1090     1.0330 hc         1 33D       0.035144
     21 H53         -3.5930     1.4080     0.9670 hc         1 33D       0.035144
@<TRIPOS>BOND
     1     1     2 1
     2     1     6 1
     3     3     5 1
     4     3     4 1
     5     3     7 1
     6     3     6 1
     7     1     8 1
     8     1     9 1
     9     2    10 1
    10     6    11 1
    11     6    12 1
    12     5    13 1
    13     5    14 1
    14     5    15 1
    15     4    19 1
    16     4    20 1
    17     4    21 1
    18     7    16 1
    19     7    17 1
    20     7    18 1
@<TRIPOS>SUBSTRUCTURE
     1 33D         1 TEMP              0 ****  ****    0 ROOT
