@<TRIPOS>MOLECULE
molecule
   19    19     1     0     0
SMALL
bcc


@<TRIPOS>ATOM
      1 OAC          0.0000     0.0000     0.0000 o          1 33E      -0.154500
      2 NAM          1.2180     0.0000     0.0000 no         1 33E       0.283200
      3 OAD          1.8260     0.0000     1.0550 o          1 33E      -0.154500
      4 CAL          1.9580    -0.0070    -1.2820 ca         1 33E      -0.137200
      5 CAH          1.2680    -0.0070    -2.4750 ca         1 33E       0.025000
      6 CAJ          3.3420    -0.0080    -1.2800 ca         1 33E       0.131900
      7 IAE          4.3830     0.0000     0.5390 i          1 33E       0.003100
      8 CAF          4.0420    -0.0150    -2.4740 ca         1 33E      -0.086000
      9 CAG          3.3620    -0.0200    -3.6750 ca         1 33E      -0.084000
     10 CAK          1.9670    -0.0140    -3.6830 ca         1 33E      -0.215600
     11 CAI          1.2330    -0.0140    -4.9660 c          1 33E       0.508700
     12 OAB          0.0170    -0.0110    -4.9710 o          1 33E      -0.398100
     13 NAA          1.9110    -0.0210    -6.1310 nz         1 33E      -0.679400
     14 H1           0.1840    -0.0020    -2.4750 ha         1 33E       0.203000
     15 H2           5.1250    -0.0170    -2.4660 ha         1 33E       0.185000
     16 H3           3.9110    -0.0250    -4.6090 ha         1 33E       0.123000
     17 H4           2.4830    -0.8410    -6.1790 hn         1 33E       0.481467
     18 H5           1.2640    -0.0200    -6.8940 hn         1 33E       0.481467
     19 HAA3         2.4910     0.7940    -6.1840 hn         1 33E       0.481467
@<TRIPOS>BOND
     1     3     2 1
     2    12    11 2
     3     2     1 1
     4     2     4 1
     5     5     4 ar
     6     5    10 ar
     7     4     6 ar
     8    11    10 1
     9    11    13 1
    10    10     9 ar
    11     6     7 1
    12     6     8 ar
    13     9     8 ar
    14     5    14 1
    15     8    15 1
    16     9    16 1
    17    13    17 1
    18    13    18 1
    19    19    13 1
@<TRIPOS>SUBSTRUCTURE
     1 33E         1 TEMP              0 ****  ****    0 ROOT
