@<TRIPOS>MOLECULE
33E
   19    19     1     0     0
SMALL
bcc


@<TRIPOS>ATOM
      1 OAC          0.0000     0.0000     0.0000 o          1 33E      -0.414000
      2 NAM          1.2180     0.0000     0.0000 no         1 33E       1.031200
      3 OAD          1.8260     0.0000     1.0550 o          1 33E      -0.414000
      4 CAL          1.9580    -0.0070    -1.2820 ca         1 33E      -0.424200
      5 CAH          1.2680    -0.0070    -2.4750 ca         1 33E       0.104000
      6 CAJ          3.3420    -0.0080    -1.2800 ca         1 33E       0.225900
      7 IAE          4.3830     0.0000     0.5390 i          1 33E      -0.011900
      8 CAF          4.0420    -0.0150    -2.4740 ca         1 33E      -0.073000
      9 CAG          3.3620    -0.0200    -3.6750 ca         1 33E      -0.037000
     10 CAK          1.9670    -0.0140    -3.6830 ca         1 33E      -0.265600
     11 CAI          1.2330    -0.0140    -4.9660 c          1 33E       0.356700
     12 OAB          0.0170    -0.0110    -4.9710 o          1 33E      -0.416100
     13 NAA          1.9110    -0.0210    -6.1310 nz         1 33E       0.201600
     14 H1           0.1840    -0.0020    -2.4750 ha         1 33E       0.161000
     15 H2           5.1250    -0.0170    -2.4660 ha         1 33E       0.144000
     16 H3           3.9110    -0.0250    -4.6090 ha         1 33E       0.086000
     17 H4           2.4830    -0.8410    -6.1790 hn         1 33E       0.248467
     18 H5           1.2640    -0.0200    -6.8940 hn         1 33E       0.248467
     19 HAA3         2.4910     0.7940    -6.1840 hn         1 33E       0.248467
@<TRIPOS>BOND
     1     1     2 1   
     2     2     3 1   
     3     2     4 1   
     4     4     5 ar  
     5     4     6 ar  
     6     5    10 ar  
     7     5    14 1   
     8     6     7 1   
     9     6     8 ar  
    10     8     9 ar  
    11     8    15 1   
    12     9    10 ar  
    13     9    16 1   
    14    10    11 1   
    15    11    12 2   
    16    11    13 1   
    17    13    17 1   
    18    13    18 1   
    19    13    19 1   
@<TRIPOS>SUBSTRUCTURE
     1 33E         1 TEMP              0 ****  ****    0 ROOT
