@<TRIPOS>MOLECULE
molecule
   78    81     1     0     0
SMALL
bcc


@<TRIPOS>ATOM
      1 C1           0.0000     0.0000     0.0000 ca         1 33F      -0.076000
      2 C2          -0.0050    -0.0000     2.3950 ca         1 33F      -0.076000
      3 C3           1.3820     0.0000     0.0000 ca         1 33F      -0.173000
      4 C4           1.3760    -0.0010     2.4010 ca         1 33F      -0.173000
      5 C5          -7.6410     1.0360     0.0690 ca         1 33F      -0.200000
      6 C6          -9.1960    -0.6760    -0.5770 ca         1 33F      -0.200000
      7 C7          -6.5910     0.2040    -0.2640 ca         1 33F       0.023500
      8 C8          -8.1420    -1.5050    -0.9090 ca         1 33F       0.023500
      9 C9          -7.8090    -6.4990     4.9130 ca         1 33F      -0.132300
     10 C10         -7.2070    -6.2080     3.7030 ca         1 33F      -0.238300
     11 C11         -0.6930    -0.0000     1.1960 ca         1 33F      -0.143300
     12 C12          2.0740     0.0000     1.2020 ca         1 33F       0.133100
     13 C13         -8.9480     0.5970    -0.0870 ca         1 33F       0.179100
     14 C14         -6.8400    -1.0660    -0.7520 ca         1 33F      -0.332500
     15 C15         -7.7420    -5.5380     5.9290 ca         1 33F       0.276800
     16 C16         -6.5680    -4.9740     3.5680 ca         1 33F       0.559200
     17 C18         -4.0120    -1.6290     1.1880 c          1 33F       0.668100
     18 C19         -6.8940    -4.7250     1.2510 c3         1 33F       0.148800
     19 C20         -6.1350    -4.5260    -0.0660 c3         1 33F       0.242800
     20 C21         -5.3360    -3.3070     2.4530 c3         1 33F       0.164800
     21 C22         -4.5140    -3.0500     1.1870 c3         1 33F       0.176500
     22 C24         -7.9530    -5.9220    10.4010 c3         1 33F      -0.110100
     23 C25         -2.1990    -0.0010     1.1920 c3         1 33F       0.167300
     24 C26         -9.2660    -3.8060    10.1970 c3         1 33F      -0.096400
     25 C27         -8.9240    -5.1350     9.5190 c3         1 33F       0.112700
     26 C28          4.0780    -0.0000     2.4800 c3         1 33F       0.795700
     27 C29        -11.3020     0.8970     0.0540 c3         1 33F       0.795700
     28 N30         -7.1110    -4.3900     5.7100 nb         1 33F      -0.284000
     29 N31         -6.5530    -4.1210     4.5870 nb         1 33F      -0.371000
     30 N32         -5.9500    -4.6390     2.3740 nh         1 33F      -0.693300
     31 N33         -5.3790    -3.2680     0.0160 n3         1 33F      -0.812500
     32 N34         -8.3020    -4.8740     8.2190 ns         1 33F      -0.559900
     33 N35         -2.6870    -1.3820     1.1910 ns         1 33F      -0.549900
     34 O36         -8.9460    -6.8520     7.4390 o          1 33F      -0.610100
     35 O37         -4.8010    -0.7080     1.1870 o          1 33F      -0.632100
     36 O40          3.4320     0.0000     1.2050 os         1 33F      -0.338900
     37 O41         -9.9840     1.4140     0.2410 os         1 33F      -0.338900
     38 F42          3.7020    -1.1420     3.1940 f          1 33F      -0.203967
     39 F43          5.4660     0.0000     2.2990 f          1 33F      -0.203967
     40 F44          3.7010     1.1420     3.1940 f          1 33F      -0.203967
     41 F45        -11.4670    -0.2510     0.8360 f          1 33F      -0.203300
     42 F46        -12.2400     1.8610     0.4370 f          1 33F      -0.203300
     43 F47        -11.4900     0.5720    -1.2940 f          1 33F      -0.203300
     44 S48         -5.4970    -2.1250    -1.1760 sy         1 33F       1.435200
     45 H1          -0.5410     0.0000    -0.9390 ha         1 33F       0.147500
     46 H2          -0.5500    -0.0010     3.3310 ha         1 33F       0.147500
     47 H3           1.9240     0.0000    -0.9380 ha         1 33F       0.152000
     48 H4           1.9140    -0.0010     3.3420 ha         1 33F       0.152000
     49 H5          -7.4440     2.0300     0.4510 ha         1 33F       0.153500
     50 H6         -10.2160    -1.0210    -0.7000 ha         1 33F       0.153500
     51 H7          -5.5700     0.5460    -0.1420 ha         1 33F       0.163000
     52 H8          -8.3350    -2.5000    -1.2920 ha         1 33F       0.163000
     53 H9          -8.3190    -7.4420     5.0700 ha         1 33F       0.175000
     54 H10         -7.2300    -6.9160     2.8830 ha         1 33F       0.157000
     55 H19         -7.6470    -3.9530     1.3540 h1         1 33F       0.055200
     56 H19A        -7.3660    -5.7000     1.2510 h1         1 33F       0.055200
     57 H20         -5.4500    -5.3520    -0.2190 h1         1 33F       0.070200
     58 H20A        -6.8400    -4.4740    -0.8870 h1         1 33F       0.070200
     59 H21         -4.6870    -3.2610     3.3200 h1         1 33F       0.078200
     60 H21A        -6.1140    -2.5570     2.5370 h1         1 33F       0.078200
     61 H22         -3.6780    -3.7370     1.1520 h1         1 33F       0.068700
     62 H23         -9.8510    -2.4680     8.6190 hc         1 33F       0.037367
     63 H23A       -10.9810    -3.8000     8.9010 hc         1 33F       0.037367
     64 H23B       -10.9170    -2.4400    10.0310 hc         1 33F       0.037367
     65 H24A        -8.4010    -6.8700    10.6750 hc         1 33F       0.043033
     66 H24B        -7.0340    -6.1020     9.8550 hc         1 33F       0.043033
     67 H25         -2.5580     0.5100     0.3070 h1         1 33F       0.065200
     68 H25A        -2.5630     0.5100     2.0760 h1         1 33F       0.065200
     69 H26         -8.3750    -3.1930    10.2590 hc         1 33F       0.049700
     70 H26A        -9.6440    -3.9960    11.1940 hc         1 33F       0.049700
     71 H27         -9.8310    -5.7110     9.3770 h1         1 33F       0.079700
     72 HN34        -7.7990    -4.0220     8.0670 hn         1 33F       0.333500
     73 HN35        -2.0370    -2.1430     1.2140 hn         1 33F       0.319500
     74 C17         -8.3700    -5.8000     7.2410 c          1 33F       0.578600
     75 O38         -5.8880    -2.8150    -2.3560 o          1 33F      -0.634800
     76 O39         -4.3200    -1.3340    -1.0930 o          1 33F      -0.634800
     77 H24         -7.7350    -5.3530    11.2960 hc         1 33F       0.043033
     78 C23        -10.3320    -3.0750     9.3770 c3         1 33F      -0.094100
@<TRIPOS>BOND
     1     1     3 ar
     2     1    11 ar
     3     2     4 ar
     4     2    11 ar
     5     3    12 ar
     6     4    12 ar
     7     5     7 ar
     8     5    13 ar
     9     6     8 ar
    10     6    13 ar
    11     7    14 ar
    12     8    14 ar
    13     9    10 ar
    14     9    15 ar
    15    10    16 ar
    16    11    23 1
    17    12    36 1
    18    13    37 1
    19    14    44 1
    20    15    74 1
    21    15    28 ar
    22    16    29 ar
    23    16    30 1
    24    74    32 1
    25    74    34 2
    26    17    21 1
    27    17    33 1
    28    17    35 2
    29    18    19 1
    30    18    30 1
    31    19    31 1
    32    20    21 1
    33    20    30 1
    34    21    31 1
    35    78    24 1
    36    22    25 1
    37    23    33 1
    38    24    25 1
    39    25    32 1
    40    26    36 1
    41    26    38 1
    42    26    39 1
    43    26    40 1
    44    27    37 1
    45    27    41 1
    46    27    42 1
    47    27    43 1
    48    28    29 ar
    49    31    44 1
    50    75    44 2
    51    76    44 2
    52     1    45 1
    53     2    46 1
    54     3    47 1
    55     4    48 1
    56     5    49 1
    57     6    50 1
    58     7    51 1
    59     8    52 1
    60     9    53 1
    61    10    54 1
    62    18    55 1
    63    18    56 1
    64    19    57 1
    65    19    58 1
    66    20    59 1
    67    20    60 1
    68    21    61 1
    69    78    62 1
    70    78    63 1
    71    78    64 1
    72    22    77 1
    73    22    65 1
    74    22    66 1
    75    23    67 1
    76    23    68 1
    77    24    69 1
    78    24    70 1
    79    25    71 1
    80    32    72 1
    81    33    73 1
@<TRIPOS>SUBSTRUCTURE
     1 33F         1 TEMP              0 ****  ****    0 ROOT
