@<TRIPOS>MOLECULE
molecule
   53    57     1     0     0
SMALL
bcc


@<TRIPOS>ATOM
      1 F32          0.0000     0.0000     0.0000 f          1 33G      -0.124900
      2 C30          1.3520     0.0000     0.0000 ca         1 33G       0.152900
      3 C29          2.0440     0.0000     1.2000 ca         1 33G      -0.149000
      4 C28          3.4270    -0.0010     1.2050 ca         1 33G      -0.098000
      5 C27          4.1240    -0.0020     0.0150 ca         1 33G      -0.143000
      6 C31          2.0410    -0.0070    -1.1980 ca         1 33G      -0.152000
      7 C26          3.4340    -0.0030    -1.1960 cp         1 33G      -0.026000
      8 C22          4.1800    -0.0110    -2.4790 cp         1 33G      -0.017000
      9 C21          3.4900    -0.0230    -3.6860 ca         1 33G      -0.067000
     10 C20          4.1990    -0.0300    -4.8870 ca         1 33G       0.006000
     11 C24          3.4960    -0.0420    -6.1350 cg         1 33G       0.215800
     12 N25          2.9450    -0.0330    -7.1280 n1         1 33G      -0.314800
     13 C19          5.5950    -0.0250    -4.8700 ca         1 33G      -0.088000
     14 C23          5.5740    -0.0000    -2.4750 ca         1 33G      -0.103000
     15 C18          6.2720    -0.0130    -3.6670 ca         1 33G      -0.103300
     16 C4           7.7790    -0.0080    -3.6550 c3         1 33G       0.149800
     17 C3           8.2770     1.0720    -2.7280 ce         1 33G       0.089100
     18 C8           7.3980     2.5390    -2.6450 cg         1 33G       0.188500
     19 N9           7.1560     3.5410    -2.5510 n1         1 33G      -0.307800
     20 C2           8.8360     0.8110    -1.5280 c2         1 33G       0.080100
     21 N7           9.2460     1.8790    -0.7690 nz         1 33G      -0.693400
     22 C14          8.3070     0.2410    -5.0690 cy         1 33G      -0.092700
     23 C17          7.7370     1.5110    -5.7240 cy         1 33G      -0.122900
     24 C16          9.1470     1.7570    -6.2870 cy         1 33G      -0.097400
     25 C15          9.6800     0.9320    -5.1020 cy         1 33G      -0.122900
     26 C5           8.2890    -1.3330    -3.1480 cc         1 33G      -0.369600
     27 C10          8.2910    -2.5350    -3.7450 cd         1 33G       0.014400
     28 C13          7.7620    -2.8440    -5.1230 c3         1 33G      -0.043800
     29 N11          8.8540    -3.4180    -2.8890 na         1 33G      -0.015600
     30 N12          9.2100    -2.7260    -1.7210 nd         1 33G      -0.450800
     31 C6           8.8740    -1.4770    -1.8710 cc         1 33G       0.546600
     32 O1           9.0190    -0.4250    -1.0220 os         1 33G      -0.314400
     33 H1           1.5020     0.0030     2.1380 ha         1 33G       0.159000
     34 H2           3.9650    -0.0010     2.1450 ha         1 33G       0.140000
     35 H3           5.2070    -0.0200     0.0220 ha         1 33G       0.116000
     36 H4           1.4980     0.0170    -2.1350 ha         1 33G       0.154000
     37 H5           2.4070     0.0010    -3.6910 ha         1 33G       0.163000
     38 H6           6.1480    -0.0810    -5.8000 ha         1 33G       0.157000
     39 H7           6.1140     0.0480    -1.5370 ha         1 33G       0.125000
     40 H10          9.8470     2.4650    -1.3150 hn         1 33G       0.488467
     41 H11          9.7440     1.5460     0.0330 hn         1 33G       0.488467
     42 H13          8.2580    -0.6230    -5.7210 hc         1 33G       0.090700
     43 H14          7.0470     2.0400    -5.0780 hc         1 33G       0.068200
     44 H15          7.3560     1.3310    -6.7220 hc         1 33G       0.068200
     45 H16          9.1830     1.6910    -7.3680 hc         1 33G       0.077700
     46 H17          9.6070     2.6520    -5.8840 hc         1 33G       0.077700
     47 H18         10.3850     0.4280    -5.7520 hc         1 33G       0.068200
     48 H19         10.0650     1.1410    -4.1110 hc         1 33G       0.068200
     49 H20          7.6210    -3.9140    -5.2240 hc         1 33G       0.071033
     50 H21          6.8140    -2.3400    -5.2680 hc         1 33G       0.071033
     51 H22          8.4710    -2.5020    -5.8670 hc         1 33G       0.071033
     52 H23          8.9910    -4.3950    -3.0570 hn         1 33G       0.363700
     53 H73          8.5830     2.0430    -0.0380 hn         1 33G       0.488467
@<TRIPOS>BOND
     1    12    11 3   
     2    19    18 3   
     3    24    25 1   
     4    24    23 1   
     5    11    10 1   
     6    18    17 1   
     7    25    22 1   
     8    10    13 ar  
     9    10     9 ar  
    10    13    15 ar  
    11    21    20 1   
    12    23    22 1   
    13    17    20 2   
    14    17    16 1   
    15    22    16 1   
    16    20    32 1   
    17     9     8 ar  
    18    15    16 1   
    19    15    14 ar  
    20    16    26 1   
    21    14     8 ar  
    22     8     7 1   
    23    32    31 1   
    24    26    31 1   
    25    26    27 2   
    26    31    30 2   
    27     6     7 ar  
    28     6     2 ar  
    29     7     5 ar  
    30    27    28 1   
    31    27    29 1   
    32     1     2 1   
    33    30    29 1   
    34     2     3 ar  
    35     5     4 ar  
    36     3     4 ar  
    37     3    33 1   
    38     4    34 1   
    39     5    35 1   
    40     6    36 1   
    41     9    37 1   
    42    13    38 1   
    43    14    39 1   
    44    21    40 1   
    45    21    41 1   
    46    22    42 1   
    47    23    43 1   
    48    23    44 1   
    49    24    45 1   
    50    24    46 1   
    51    25    47 1   
    52    25    48 1   
    53    28    49 1   
    54    28    50 1   
    55    28    51 1   
    56    29    52 1   
    57    53    21 1   
@<TRIPOS>SUBSTRUCTURE
     1 33G         1 TEMP              0 ****  ****    0 ROOT
