@<TRIPOS>MOLECULE
33G
   53    57     1     0     0
SMALL
bcc


@<TRIPOS>ATOM
      1 F32          0.0000     0.0000     0.0000 f          1 33G      -0.115900
      2 C30          1.3520     0.0000     0.0000 ca         1 33G       0.128900
      3 C29          2.0440     0.0000     1.2000 ca         1 33G      -0.112000
      4 C28          3.4270    -0.0010     1.2050 ca         1 33G      -0.068000
      5 C27          4.1240    -0.0020     0.0150 ca         1 33G      -0.121000
      6 C31          2.0410    -0.0070    -1.1980 ca         1 33G      -0.121000
      7 C26          3.4340    -0.0030    -1.1960 cp         1 33G      -0.029000
      8 C22          4.1800    -0.0110    -2.4790 cp         1 33G      -0.003000
      9 C21          3.4900    -0.0230    -3.6860 ca         1 33G      -0.056000
     10 C20          4.1990    -0.0300    -4.8870 ca         1 33G       0.067000
     11 C24          3.4960    -0.0420    -6.1350 cg         1 33G       0.194800
     12 N25          2.9450    -0.0330    -7.1280 n1         1 33G      -0.324800
     13 C19          5.5950    -0.0250    -4.8700 ca         1 33G      -0.089000
     14 C23          5.5740    -0.0000    -2.4750 ca         1 33G      -0.098000
     15 C18          6.2720    -0.0130    -3.6670 ca         1 33G      -0.111300
     16 C4           7.7790    -0.0080    -3.6550 c3         1 33G       0.181800
     17 C3           8.2770     1.0720    -2.7280 ce         1 33G       0.207100
     18 C8           7.3980     2.5390    -2.6450 cg         1 33G       0.087500
     19 N9           7.1560     3.5410    -2.5510 n1         1 33G      -0.287800
     20 C2           8.8360     0.8110    -1.5280 c2         1 33G      -0.162900
     21 N7           9.2460     1.8790    -0.7690 nz         1 33G       0.229600
     22 C14          8.3070     0.2410    -5.0690 cy         1 33G      -0.087700
     23 C17          7.7370     1.5110    -5.7240 cy         1 33G      -0.079900
     24 C16          9.1470     1.7570    -6.2870 cy         1 33G      -0.023400
     25 C15          9.6800     0.9320    -5.1020 cy         1 33G      -0.079900
     26 C5           8.2890    -1.3330    -3.1480 cc         1 33G      -0.390600
     27 C10          8.2910    -2.5350    -3.7450 cd         1 33G      -0.166600
     28 C13          7.7620    -2.8440    -5.1230 c3         1 33G       0.075200
     29 N11          8.8540    -3.4180    -2.8890 na         1 33G       0.491400
     30 N12          9.2100    -2.7260    -1.7210 nd         1 33G      -0.600800
     31 C6           8.8740    -1.4770    -1.8710 cc         1 33G       0.558600
     32 O1           9.0190    -0.4250    -1.0220 os         1 33G      -0.262400
     33 H1           1.5020     0.0030     2.1380 ha         1 33G       0.129000
     34 H2           3.9650    -0.0010     2.1450 ha         1 33G       0.109000
     35 H3           5.2070    -0.0200     0.0220 ha         1 33G       0.095000
     36 H4           1.4980     0.0170    -2.1350 ha         1 33G       0.131000
     37 H5           2.4070     0.0010    -3.6910 ha         1 33G       0.136000
     38 H6           6.1480    -0.0810    -5.8000 ha         1 33G       0.141000
     39 H7           6.1140     0.0480    -1.5370 ha         1 33G       0.105000
     40 H10          9.8470     2.4650    -1.3150 hn         1 33G       0.241467
     41 H11          9.7440     1.5460     0.0330 hn         1 33G       0.241467
     42 H13          8.2580    -0.6230    -5.7210 hc         1 33G       0.075700
     43 H14          7.0470     2.0400    -5.0780 hc         1 33G       0.042200
     44 H15          7.3560     1.3310    -6.7220 hc         1 33G       0.042200
     45 H16          9.1830     1.6910    -7.3680 hc         1 33G       0.044200
     46 H17          9.6070     2.6520    -5.8840 hc         1 33G       0.044200
     47 H18         10.3850     0.4280    -5.7520 hc         1 33G       0.042200
     48 H19         10.0650     1.1410    -4.1110 hc         1 33G       0.042200
     49 H20          7.6210    -3.9140    -5.2240 hc         1 33G       0.030033
     50 H21          6.8140    -2.3400    -5.2680 hc         1 33G       0.030033
     51 H22          8.4710    -2.5020    -5.8670 hc         1 33G       0.030033
     52 H23          8.9910    -4.3950    -3.0570 hn         1 33G       0.172700
     53 H73          8.5830     2.0430    -0.0380 hn         1 33G       0.241467
@<TRIPOS>BOND
     1     1     2 1   
     2     2     3 ar  
     3     2     6 ar  
     4     3     4 ar  
     5     3    33 1   
     6     4     5 ar  
     7     4    34 1   
     8     5     7 ar  
     9     5    35 1   
    10     6     7 ar  
    11     6    36 1   
    12     7     8 1   
    13     8     9 ar  
    14     8    14 ar  
    15     9    10 ar  
    16     9    37 1   
    17    10    11 1   
    18    10    13 ar  
    19    11    12 3   
    20    13    15 ar  
    21    13    38 1   
    22    14    15 ar  
    23    14    39 1   
    24    15    16 1   
    25    16    17 1   
    26    16    22 1   
    27    16    26 1   
    28    17    18 1   
    29    17    20 2   
    30    18    19 3   
    31    20    21 1   
    32    20    32 1   
    33    21    40 1   
    34    21    41 1   
    35    21    53 1   
    36    22    23 1   
    37    22    25 1   
    38    22    42 1   
    39    23    24 1   
    40    23    43 1   
    41    23    44 1   
    42    24    25 1   
    43    24    45 1   
    44    24    46 1   
    45    25    47 1   
    46    25    48 1   
    47    26    27 2   
    48    26    31 1   
    49    27    28 1   
    50    27    29 1   
    51    28    49 1   
    52    28    50 1   
    53    28    51 1   
    54    29    30 1   
    55    29    52 1   
    56    30    31 2   
    57    31    32 1   
@<TRIPOS>SUBSTRUCTURE
     1 33G         1 TEMP              0 ****  ****    0 ROOT
