@<TRIPOS>MOLECULE
33H
   63    67     1     0     0
SMALL
bcc


@<TRIPOS>ATOM
      1 C1           0.0000     0.0000     0.0000 c2         1 33H      -0.141000
      2 C2          -1.1100     1.1820    -1.7050 c2         1 33H       0.215000
      3 C3          -1.9580     1.2830    -2.9420 c3         1 33H       0.041000
      4 O1          -1.9840     0.0210    -3.6150 os         1 33H      -0.244000
      5 O2          -0.7370     2.2030    -1.1660 o          1 33H      -0.420000
      6 O3          -2.7510    -0.1090     0.6020 o          1 33H      -0.592000
      7 C11          0.4790    -0.8830    -3.6420 c3         1 33H      -0.169000
      8 C12         -1.3720     2.3440    -3.8760 c3         1 33H      -0.173000
      9 C13          1.3740     0.0000     0.0000 c2         1 33H      -0.110000
     10 C14          1.9460     0.0000     1.2400 c2         1 33H      -0.212000
     11 C15         -0.5680    -0.0010     1.2540 c2         1 33H      -0.139000
     12 C16         -1.9570    -0.0010     1.5180 c2         1 33H       0.419000
     13 C17          3.3550     0.0010     1.4950 c1         1 33H      -0.067000
     14 C18          4.5070    -0.0100     1.7200 c1         1 33H      -0.280000
     15 C19          6.2080     0.5090     1.5230 c3         1 33H       0.168000
     16 C20          6.3670     1.4210     2.6790 c3         1 33H      -0.134667
     17 C21          6.7890    -0.6470     1.5740 c3         1 33H      -0.134667
     18 C22          6.4520     1.3340     0.2060 c3         1 33H      -0.134667
     19 C23         -2.3000     2.5360    -5.0750 c3         1 33H       0.167000
     20 C24         -1.7810     3.6830    -5.9450 c3         1 33H      -0.169000
     21 N1          -0.7560     0.0050    -1.1720 n          1 33H       0.169000
     22 C4          -2.2970    -1.0720    -2.7430 c3         1 33H      -0.185000
     23 C5          -1.1320    -1.2730    -1.7720 c3         1 33H       0.281000
     24 C6           0.0660    -1.8490    -2.5300 c3         1 33H      -0.207000
     25 C7          -0.3180    -3.1980    -3.1420 c3         1 33H      -0.515000
     26 C8           0.8800    -3.7740    -3.8990 DU         1 33H      -0.250000
     27 C9           1.2920    -2.8090    -5.0120 DU         1 33H      -0.076000
     28 C10          1.6770    -1.4600    -4.4000 c3         1 33H       0.043000
     29 S1           0.6960    -0.0000     2.4750 ss         1 33H       0.332000
     30 O4          -2.4030     0.1180     2.7860 o          1 33H      -0.592000
     31 O5          -2.3370     1.3340    -5.8470 oh         1 33H      -0.321000
     32 H1          -2.9670     1.5600    -2.6620 h1         1 33H       0.089000
     33 H2           1.0520    -0.2580    -2.9670 hc         1 33H       0.128500
     34 H3          -0.3270    -0.6730    -4.3340 hc         1 33H       0.128500
     35 H4          -0.4300     1.8090    -3.9070 hc         1 33H       0.095500
     36 H5          -1.1310     3.1180    -3.1570 hc         1 33H       0.095500
     37 H6           2.1520    -0.1030    -0.7470 ha         1 33H       0.113000
     38 H7           5.7550     2.3100     2.5920 hc         1 33H       0.054889
     39 H8           7.4320     1.5780     2.5600 hc         1 33H       0.054889
     40 H9           6.3730     0.8930     3.6250 hc         1 33H       0.054889
     41 H10          6.5140    -1.2950     2.3970 hc         1 33H       0.054889
     42 H11          6.6130    -1.3130     0.7370 hc         1 33H       0.054889
     43 H12          7.8590    -0.7250     1.4170 hc         1 33H       0.054889
     44 H13          6.0880     0.6340    -0.5370 hc         1 33H       0.054889
     45 H14          5.7910     2.1910     0.2420 hc         1 33H       0.054889
     46 H15          7.4920     1.6200     0.3030 hc         1 33H       0.054889
     47 H16         -3.2980     2.7720    -4.7260 h1         1 33H       0.040000
     48 H17         -2.2970     3.7080    -6.8960 hc         1 33H       0.038000
     49 H18         -1.6160     4.6950    -5.5940 hc         1 33H       0.038000
     50 H19         -0.7140     3.6290    -6.1280 hc         1 33H       0.038000
     51 H20         -1.4640    -1.1880    -2.0600 h1         1 33H       0.013500
     52 H21         -2.7620    -1.7980    -3.3990 h1         1 33H       0.013500
     53 H22         -1.4330    -1.9600    -0.9900 h1         1 33H       0.108000
     54 H23          0.8970    -1.9880    -1.8480 hc         1 33H       0.083000
     55 H24          0.6260    -3.7290    -3.1160 DU         1 33H       0.229000
     56 H25         -0.7480    -3.5690    -2.2190 hc         1 33H       0.151000
     57 H26          1.3510    -3.1750    -4.6690 ha         1 33H       0.098000
     58 H27          0.6870    -4.6580    -4.4950 ha         1 33H       0.098000
     59 H28          2.1850    -3.1310    -5.5340 ha         1 33H      -0.009000
     60 H29          1.6720    -1.9530    -4.4690 ha         1 33H      -0.009000
     61 H30          1.2810    -2.1920    -5.0940 DU         1 33H       0.074000
     62 H31          2.1700    -0.6970    -4.9900 hc         1 33H       0.097000
     63 H33         -3.0610     1.2390    -6.4440 ho         1 33H       0.186000
@<TRIPOS>BOND
     1     1     9 1   
     2     1    11 1   
     3     1    21 1   
     4     2     3 1   
     5     2     5 1   
     6     2    21 1   
     7     3     4 1   
     8     3     8 1   
     9     3    32 1   
    10     4    22 1   
    11     6    12 1   
    12     7    24 1   
    13     7    28 1   
    14     7    33 1   
    15     7    34 1   
    16     8    19 1   
    17     8    35 1   
    18     8    36 1   
    19     9    10 1   
    20     9    37 1   
    21    10    13 1   
    22    10    29 1   
    23    11    12 1   
    24    11    29 1   
    25    12    30 1   
    26    13    14 1   
    27    14    15 1   
    28    15    16 1   
    29    15    17 1   
    30    15    18 1   
    31    16    38 1   
    32    16    39 1   
    33    16    40 1   
    34    17    41 1   
    35    17    42 1   
    36    17    43 1   
    37    18    44 1   
    38    18    45 1   
    39    18    46 1   
    40    19    20 1   
    41    19    31 1   
    42    19    47 1   
    43    20    48 1   
    44    20    49 1   
    45    20    50 1   
    46    21    23 1   
    47    22    23 1   
    48    22    51 1   
    49    22    52 1   
    50    23    24 1   
    51    23    53 1   
    52    24    25 1   
    53    24    54 1   
    54    25    26 1   
    55    25    55 1   
    56    25    56 1   
    57    26    27 1   
    58    26    55 1   
    59    26    57 1   
    60    26    58 1   
    61    27    28 1   
    62    27    59 1   
    63    27    60 1   
    64    27    61 1   
    65    28    61 1   
    66    28    62 1   
    67    31    63 1   
@<TRIPOS>SUBSTRUCTURE
     1 33H         1 TEMP              0 ****  ****    0 ROOT
