@<TRIPOS>MOLECULE
molecule
   48    51     1     0     0
SMALL
bcc


@<TRIPOS>ATOM
      1 C1           0.0000     0.0000     0.0000 c          1 33J       0.892200
      2 C2           1.4140     0.0000     0.0000 cc         1 33J       0.018300
      3 C3           3.8870    -0.0010     0.4540 cc         1 33J      -0.077100
      4 O1          -0.6750     0.0020     1.1690 o          1 33J      -0.823300
      5 O2          -0.6090     0.0050    -1.0540 o          1 33J      -0.823300
      6 C11          3.5880     1.9040    -3.5280 c3         1 33J      -0.078900
      7 C12          4.5950     3.0400    -3.3400 c3         1 33J      -0.079400
      8 C13          4.0930     4.2930    -4.0610 c3         1 33J      -0.079400
      9 C14          2.7400     4.7090    -3.4780 c3         1 33J      -0.079400
     10 C15          1.7330     3.5720    -3.6660 c3         1 33J      -0.078900
     11 C16          5.2660    -0.0020     0.9840 ca         1 33J       0.039000
     12 C17          5.4880    -0.0020     2.3630 ca         1 33J      -0.133000
     13 C18          6.7780    -0.0020     2.8510 ca         1 33J      -0.127500
     14 C19          7.8510    -0.0020     1.9780 ca         1 33J      -0.156000
     15 C20          7.6380    -0.0020     0.6110 ca         1 33J      -0.127500
     16 C21          6.3540    -0.0080     0.1090 ca         1 33J      -0.133000
     17 S1           2.4280     0.0000     1.4350 ss         1 33J      -0.074800
     18 C4           3.5570    -0.0060    -0.8670 cd         1 33J      -0.128000
     19 C5           2.2060    -0.0070    -1.1250 cd         1 33J       0.002600
     20 N1           1.6830    -0.0140    -2.4180 n          1 33J      -0.346000
     21 C6           1.5250    -1.1190    -3.1670 c          1 33J       0.722500
     22 C7           0.9420    -0.7550    -4.5140 c3         1 33J      -0.167400
     23 C8           1.1590     0.7720    -4.6230 c3         1 33J      -0.103400
     24 C9           1.2280     1.1840    -3.1340 c3         1 33J       0.120700
     25 C10          2.2350     2.3200    -2.9450 c3         1 33J      -0.079700
     26 H4           4.7040     3.2530    -2.2830 hc         1 33J       0.037450
     27 H5           5.5520     2.7460    -3.7550 hc         1 33J       0.037450
     28 H6           3.9790     4.0790    -5.1170 hc         1 33J       0.030700
     29 H7           4.8060     5.0970    -3.9250 hc         1 33J       0.030700
     30 H8           2.8530     4.9180    -2.4210 hc         1 33J       0.037450
     31 H9           2.3840     5.5940    -3.9910 hc         1 33J       0.037450
     32 H10          1.6240     3.3600    -4.7230 hc         1 33J       0.044200
     33 H11          0.7770     3.8670    -3.2510 hc         1 33J       0.044200
     34 H12          4.6480    -0.0020     3.0480 ha         1 33J       0.135500
     35 H13          6.9510    -0.0020     3.9200 ha         1 33J       0.118000
     36 H14          8.8630     0.0010     2.3670 ha         1 33J       0.114000
     37 H15          8.4830    -0.0040    -0.0680 ha         1 33J       0.118000
     38 H16          6.1890    -0.0080    -0.9610 ha         1 33J       0.135500
     39 H17          4.3010    -0.0110    -1.6550 ha         1 33J       0.135000
     40 H18         -0.1150    -0.9890    -4.5440 hc         1 33J       0.066200
     41 H19          1.4730    -1.2700    -5.3060 hc         1 33J       0.066200
     42 H20          2.0920     0.9940    -5.1280 hc         1 33J       0.047200
     43 H21          0.3200     1.2470    -5.1170 hc         1 33J       0.047200
     44 H22          0.2470     1.4810    -2.7820 h1         1 33J       0.098700
     45 H23          2.3500     2.5360    -1.8900 hc         1 33J       0.073700
     46 H2           3.4760     1.6950    -4.5850 hc         1 33J       0.044200
     47 O3           1.8090    -2.2430    -2.8130 o          1 33J      -0.643500
     48 H3           3.9440     1.0190    -3.0150 hc         1 33J       0.044200
@<TRIPOS>BOND
     1     8     7 1   
     2     8     9 1   
     3    23    22 1   
     4    23    24 1   
     5     6     7 1   
     6     6    25 1   
     7    22    21 1   
     8     9    10 1   
     9    24    25 1   
    10    24    20 1   
    11    10    25 1   
    12    21    47 2   
    13    21    20 1   
    14    20    19 1   
    15     5     1 1   
    16    19     2 2   
    17    19    18 1   
    18     1     2 1   
    19     1     4 1   
    20     2    17 1   
    21    18     3 2   
    22     3    17 1   
    23     3    11 1   
    24    16    11 ar  
    25    16    15 ar  
    26    11    12 ar  
    27    15    14 ar  
    28    12    13 ar  
    29    14    13 ar  
    30     6    46 1   
    31     6    48 1   
    32     7    26 1   
    33     7    27 1   
    34     8    28 1   
    35     8    29 1   
    36     9    30 1   
    37     9    31 1   
    38    10    32 1   
    39    10    33 1   
    40    12    34 1   
    41    13    35 1   
    42    14    36 1   
    43    15    37 1   
    44    16    38 1   
    45    18    39 1   
    46    22    40 1   
    47    22    41 1   
    48    23    42 1   
    49    23    43 1   
    50    24    44 1   
    51    25    45 1   
@<TRIPOS>SUBSTRUCTURE
     1 33J         1 TEMP              0 ****  ****    0 ROOT
