@<TRIPOS>MOLECULE
molecule
   44    45     1     0     0
SMALL
bcc


@<TRIPOS>ATOM
      1 N12          0.0000     0.0000     0.0000 ns         1 33K      -0.569900
      2 C13          1.3480     0.0000     0.0000 c          1 33K       0.663100
      3 C15          2.1010     0.0000     1.3060 c3         1 33K       0.080800
      4 C21          4.2280     1.6980     2.6370 ca         1 33K      -0.047300
      5 C22          5.0980     2.6050     2.0610 ca         1 33K      -0.109000
      6 C24          4.0800     4.3740     3.3120 ca         1 33K      -0.152000
      7 C26          3.2810     2.1300     3.5460 ca         1 33K      -0.109000
      8 O            5.8620     0.0100    -0.1950 o          1 33K      -0.860300
      9 C03         -0.8820     1.4080    -1.7690 c          1 33K       0.886600
     10 O04         -1.5240     1.6470    -2.9230 o          1 33K      -0.842300
     11 C05         -0.7320    -0.0060    -1.2680 c3         1 33K       0.017700
     12 C06         -2.1170    -0.6220    -1.0560 c3         1 33K      -0.010100
     13 C07         -1.9680    -2.0720    -0.6750 cc         1 33K      -0.187900
     14 N08         -2.0160    -3.1470    -1.5210 na         1 33K      -0.292900
     15 C09         -1.8330    -4.2550    -0.7700 cc         1 33K       0.355400
     16 N10         -1.6790    -3.8960     0.4750 nd         1 33K      -0.711000
     17 C11         -1.7590    -2.5600     0.5620 cd         1 33K       0.285200
     18 O14          1.9550     0.0010    -1.0500 o          1 33K      -0.570100
     19 N16          3.5450    -0.0000     1.0380 n3         1 33K      -0.660600
     20 C18          5.3280    -1.0740    -0.2160 c          1 33K       0.903600
     21 O19          5.9680    -2.1260    -0.7500 o          1 33K      -0.860300
     22 C23          5.0230     3.9430     2.3990 ca         1 33K      -0.145500
     23 C25          3.2060     3.4680     3.8830 ca         1 33K      -0.145500
     24 H1          -0.5000     0.0020     0.8670 hn         1 33K       0.284500
     25 H2           1.8390    -0.8840     1.8740 h1         1 33K       0.027700
     26 H3           1.8390     0.8850     1.8730 h1         1 33K       0.027700
     27 H4           3.2510    -1.5120    -0.3830 h1         1 33K       0.034700
     28 H5           3.9960    -2.0450     1.1310 h1         1 33K       0.034700
     29 H6           3.8940    -0.3600     3.0730 h1         1 33K       0.036200
     30 H7           5.3440    -0.0380     2.1120 h1         1 33K       0.036200
     31 H8           5.8370     2.2670     1.3450 ha         1 33K       0.145000
     32 H9           4.0210     5.4230     3.5760 ha         1 33K       0.101000
     33 H10          2.5960     1.4190     3.9940 ha         1 33K       0.145000
     34 H12         -0.1850    -0.5910    -1.9980 h1         1 33K       0.076700
     35 H13         -2.6310    -0.0910    -0.2630 hc         1 33K       0.060200
     36 H14         -2.6910    -0.5460    -1.9720 hc         1 33K       0.060200
     37 H15         -2.1590    -3.1170    -2.5110 hn         1 33K       0.295700
     38 H16         -1.8160    -5.2730    -1.1410 h5         1 33K       0.043100
     39 H18         -1.6700    -1.9750     1.4700 h4         1 33K       0.033100
     40 H21          5.7070     4.6540     1.9490 ha         1 33K       0.107500
     41 H22          2.4650     3.8060     4.5970 ha         1 33K       0.107500
     42 O02         -0.4250     2.3260    -1.1310 o          1 33K      -0.842300
     43 C17          3.9610    -1.2520     0.3930 c3         1 33K       0.052800
     44 C20          4.3090     0.2380     2.2700 c3         1 33K       0.212100
@<TRIPOS>BOND
     1    22     5 ar
     2    22     6 ar
     3     5     4 ar
     4    18     2 2
     5    15    14 1
     6    15    16 2
     7     6    23 ar
     8     4    44 1
     9     4     7 ar
    10    44    19 1
    11    14    13 1
    12    23     7 ar
    13    42     9 1
    14     2     3 1
    15     2     1 1
    16    16    17 1
    17     3    19 1
    18    19    43 1
    19    11     9 1
    20    11     1 1
    21    11    12 1
    22    13    17 2
    23    13    12 1
    24     9    10 1
    25    43    20 1
    26    20     8 1
    27    20    21 1
    28     1    24 1
    29     3    25 1
    30     3    26 1
    31    43    27 1
    32    43    28 1
    33    44    29 1
    34    44    30 1
    35     5    31 1
    36     6    32 1
    37     7    33 1
    38    11    34 1
    39    12    35 1
    40    12    36 1
    41    14    37 1
    42    15    38 1
    43    17    39 1
    44    22    40 1
    45    23    41 1
@<TRIPOS>SUBSTRUCTURE
     1 33K         1 TEMP              0 ****  ****    0 ROOT
