@<TRIPOS>MOLECULE
33K
   44    45     1     0     0
SMALL
bcc


@<TRIPOS>ATOM
      1 N12          0.0000     0.0000     0.0000 ns         1 33K      -0.173900
      2 C13          1.3480     0.0000     0.0000 c          1 33K       0.570100
      3 C15          2.1010     0.0000     1.3060 c3         1 33K       0.057800
      4 C21          4.2280     1.6980     2.6370 ca         1 33K      -0.049300
      5 C22          5.0980     2.6050     2.0610 ca         1 33K      -0.086000
      6 C24          4.0800     4.3740     3.3120 ca         1 33K      -0.132000
      7 C26          3.2810     2.1300     3.5460 ca         1 33K      -0.086000
      8 O            5.8620     0.0100    -0.1950 o          1 33K      -0.911800
      9 C03         -0.8820     1.4080    -1.7690 c          1 33K       0.976600
     10 O04         -1.5240     1.6470    -2.9230 o          1 33K      -0.892300
     11 C05         -0.7320    -0.0060    -1.2680 c3         1 33K      -0.089300
     12 C06         -2.1170    -0.6220    -1.0560 c3         1 33K       0.073900
     13 C07         -1.9680    -2.0720    -0.6750 cc         1 33K      -0.392900
     14 N08         -2.0160    -3.1470    -1.5210 na         1 33K       0.262100
     15 C09         -1.8330    -4.2550    -0.7700 cc         1 33K       0.167400
     16 N10         -1.6790    -3.8960     0.4750 nd         1 33K      -0.636000
     17 C11         -1.7590    -2.5600     0.5620 cd         1 33K       0.294200
     18 O14          1.9550     0.0010    -1.0500 o          1 33K      -0.607100
     19 N16          3.5450    -0.0000     1.0380 n3         1 33K      -0.448600
     20 C18          5.3280    -1.0740    -0.2160 c          1 33K       0.993600
     21 O19          5.9680    -2.1260    -0.7500 o          1 33K      -0.911800
     22 C23          5.0230     3.9430     2.3990 ca         1 33K      -0.121000
     23 C25          3.2060     3.4680     3.8830 ca         1 33K      -0.121000
     24 H1          -0.5000     0.0020     0.8670 hn         1 33K       0.147500
     25 H2           1.8390    -0.8840     1.8740 h1         1 33K       0.005200
     26 H3           1.8390     0.8850     1.8730 h1         1 33K       0.005200
     27 H4           3.2510    -1.5120    -0.3830 h1         1 33K       0.017200
     28 H5           3.9960    -2.0450     1.1310 h1         1 33K       0.017200
     29 H6           3.8940    -0.3600     3.0730 h1         1 33K       0.014700
     30 H7           5.3440    -0.0380     2.1120 h1         1 33K       0.014700
     31 H8           5.8370     2.2670     1.3450 ha         1 33K       0.122000
     32 H9           4.0210     5.4230     3.5760 ha         1 33K       0.080000
     33 H10          2.5960     1.4190     3.9940 ha         1 33K       0.122000
     34 H12         -0.1850    -0.5910    -1.9980 h1         1 33K       0.053700
     35 H13         -2.6310    -0.0910    -0.2630 hc         1 33K       0.027200
     36 H14         -2.6910    -0.5460    -1.9720 hc         1 33K       0.027200
     37 H15         -2.1590    -3.1170    -2.5110 hn         1 33K       0.118700
     38 H16         -1.8160    -5.2730    -1.1410 h5         1 33K       0.007100
     39 H18         -1.6700    -1.9750     1.4700 h4         1 33K       0.001100
     40 H21          5.7070     4.6540     1.9490 ha         1 33K       0.085000
     41 H22          2.4650     3.8060     4.5970 ha         1 33K       0.085000
     42 O02         -0.4250     2.3260    -1.1310 o          1 33K      -0.892300
     43 C17          3.9610    -1.2520     0.3930 c3         1 33K       0.017800
     44 C20          4.3090     0.2380     2.2700 c3         1 33K       0.188100
@<TRIPOS>BOND
     1     1     2 1   
     2     1    11 1   
     3     1    24 1   
     4     2     3 1   
     5     2    18 2   
     6     3    19 1   
     7     3    25 1   
     8     3    26 1   
     9     4     5 ar  
    10     4     7 ar  
    11     4    44 1   
    12     5    22 ar  
    13     5    31 1   
    14     6    22 ar  
    15     6    23 ar  
    16     6    32 1   
    17     7    23 ar  
    18     7    33 1   
    19     8    20 1   
    20     9    10 1   
    21     9    11 1   
    22     9    42 1   
    23    11    12 1   
    24    11    34 1   
    25    12    13 1   
    26    12    35 1   
    27    12    36 1   
    28    13    14 1   
    29    13    17 2   
    30    14    15 1   
    31    14    37 1   
    32    15    16 2   
    33    15    38 1   
    34    16    17 1   
    35    17    39 1   
    36    19    43 1   
    37    19    44 1   
    38    20    21 1   
    39    20    43 1   
    40    22    40 1   
    41    23    41 1   
    42    27    43 1   
    43    28    43 1   
    44    29    44 1   
    45    30    44 1   
@<TRIPOS>SUBSTRUCTURE
     1 33K         1 TEMP              0 ****  ****    0 ROOT
