@<TRIPOS>MOLECULE
33L
   45    46     1     0     0
SMALL
bcc


@<TRIPOS>ATOM
      1 CD1          0.0000     0.0000     0.0000 ca         1 33L      -0.088500
      2 CE1          1.3830     0.0000     0.0000 ca         1 33L      -0.083500
      3 CZ           2.0740     0.0000     1.1980 ca         1 33L      -0.082000
      4 CE2          1.3830     0.0010     2.3950 ca         1 33L      -0.083500
      5 CD2          0.0010     0.0020     2.3940 ca         1 33L      -0.088500
      6 CG          -0.6910    -0.0000     1.1970 ca         1 33L      -0.100300
      7 CB          -2.1980     0.0060     1.1980 c3         1 33L       0.028900
      8 CA          -2.7140    -1.4340     1.1940 c3         1 33L      -0.038300
      9 C           -4.2150    -1.4300     1.3180 c          1 33L       0.582100
     10 O           -4.8980    -1.9240     0.4460 o          1 33L      -0.621100
     11 NAK         -4.8010    -0.8760     2.3980 ns         1 33L      -0.215900
     12 CAL         -6.2610    -0.8720     2.5190 c3         1 33L       0.056000
     13 CAM         -6.6630    -0.1890     3.8280 c3         1 33L      -0.068200
     14 NAN         -8.1270    -0.1850     3.9490 nz         1 33L       0.097400
     15 N           -2.3300    -2.0880    -0.0590 ns         1 33L      -0.198900
     16 CAP         -1.1140    -2.6600    -0.1760 c          1 33L       0.604700
     17 OAQ         -0.3380    -2.6330     0.7600 o          1 33L      -0.637100
     18 CAR         -0.7250    -3.3200    -1.4400 ca         1 33L      -0.166600
     19 CAS         -1.6130    -3.3470    -2.5170 ca         1 33L      -0.058500
     20 CAT         -1.2430    -3.9640    -3.6950 ca         1 33L      -0.108000
     21 CAU          0.0020    -4.5550    -3.8090 ca         1 33L      -0.067000
     22 CAV          0.8860    -4.5310    -2.7450 ca         1 33L      -0.108000
     23 CAW          0.5310    -3.9120    -1.5640 ca         1 33L      -0.058500
     24 H1          -0.5420    -0.0010    -0.9380 ha         1 33L       0.095000
     25 H2           1.9250    -0.0000    -0.9380 ha         1 33L       0.105000
     26 H3           3.1580    -0.0000     1.1980 ha         1 33L       0.106000
     27 H4           1.9240     0.0020     3.3330 ha         1 33L       0.105000
     28 H5          -0.5410     0.0020     3.3320 ha         1 33L       0.095000
     29 H6          -2.5570     0.5210     0.3150 hc         1 33L       0.014700
     30 H7          -2.5570     0.5160     2.0840 hc         1 33L       0.014700
     31 H8          -2.2850    -1.9730     2.0300 h1         1 33L       0.075700
     32 H9          -4.2380    -0.4850     3.1270 hn         1 33L       0.194500
     33 H10         -6.6910    -0.3320     1.6840 h1         1 33L       0.039700
     34 H11         -6.6270    -1.8920     2.5170 h1         1 33L       0.039700
     35 H12         -6.2330    -0.7290     4.6630 hx         1 33L       0.087700
     36 H13         -6.2970     0.8300     3.8310 hx         1 33L       0.087700
     37 H14         -8.4650    -1.1270     3.9460 hn         1 33L       0.226467
     38 H15         -8.3900     0.2610     4.8060 hn         1 33L       0.226467
     39 H17         -2.9810    -2.1380    -0.8180 hn         1 33L       0.205500
     40 H18         -2.5880    -2.8840    -2.4290 ha         1 33L       0.114000
     41 H19         -1.9310    -3.9860    -4.5320 ha         1 33L       0.110000
     42 H20          0.2850    -5.0400    -4.7350 ha         1 33L       0.108000
     43 H21          1.8610    -4.9940    -2.8420 ha         1 33L       0.110000
     44 H22          1.2240    -3.8940    -0.7310 ha         1 33L       0.114000
     45 HAN3        -8.5250     0.3030     3.1700 hn         1 33L       0.226467
@<TRIPOS>BOND
     1     1     2 ar  
     2     1     6 ar  
     3     1    24 1   
     4     2     3 ar  
     5     2    25 1   
     6     3     4 ar  
     7     3    26 1   
     8     4     5 ar  
     9     4    27 1   
    10     5     6 ar  
    11     5    28 1   
    12     6     7 1   
    13     7     8 1   
    14     7    29 1   
    15     7    30 1   
    16     8     9 1   
    17     8    15 1   
    18     8    31 1   
    19     9    10 2   
    20     9    11 1   
    21    11    12 1   
    22    11    32 1   
    23    12    13 1   
    24    12    33 1   
    25    12    34 1   
    26    13    14 1   
    27    13    35 1   
    28    13    36 1   
    29    14    37 1   
    30    14    38 1   
    31    14    45 1   
    32    15    16 1   
    33    15    39 1   
    34    16    17 2   
    35    16    18 1   
    36    18    19 ar  
    37    18    23 ar  
    38    19    20 ar  
    39    19    40 1   
    40    20    21 ar  
    41    20    41 1   
    42    21    22 ar  
    43    21    42 1   
    44    22    23 ar  
    45    22    43 1   
    46    23    44 1   
@<TRIPOS>SUBSTRUCTURE
     1 33L         1 TEMP              0 ****  ****    0 ROOT
