@<TRIPOS>MOLECULE
33M
   40    43     1     0     0
SMALL
bcc


@<TRIPOS>ATOM
      1 CAL          0.0000     0.0000     0.0000 ca         1 33M      -0.150000
      2 C5           1.4000     0.0000     0.0000 ca         1 33M      -0.276600
      3 C6           2.1510     0.0000     1.2010 ca         1 33M       0.540200
      4 NAC          1.5240    -0.0010     2.4280 nv         1 33M      -0.649500
      5 N1           3.4740     0.0000     1.1140 nb         1 33M      -0.632000
      6 C2           4.0880    -0.0010    -0.0660 ca         1 33M       0.696900
      7 NAB          5.4700    -0.0000    -0.0910 nv         1 33M      -0.638500
      8 N3           3.4360    -0.0010    -1.2130 nb         1 33M      -0.580000
      9 C4           2.0950    -0.0010    -1.2340 ca         1 33M       0.565300
     10 NAM          1.4160    -0.0010    -2.3820 nb         1 33M      -0.515000
     11 CAK          0.1030    -0.0010    -2.4020 ca         1 33M       0.379200
     12 CAR         -0.6490    -0.0060    -1.2240 ca         1 33M      -0.062700
     13 NAX         -2.0470    -0.0060    -1.2810 nh         1 33M      -0.211400
     14 CAA         -2.8300    -0.0110    -0.0440 c3         1 33M       0.199100
     15 CAS         -2.6930    -0.0000    -2.5150 ca         1 33M      -0.000400
     16 CAV         -3.0190     1.2220    -3.1430 ca         1 33M      -0.030000
     17 CAJ         -2.7080     2.4530    -2.5460 ca         1 33M      -0.098000
     18 CAE         -3.0350     3.6120    -3.1800 ca         1 33M      -0.087000
     19 CAD         -3.6780     3.5950    -4.4170 ca         1 33M      -0.097000
     20 CAH         -3.9960     2.4200    -5.0260 ca         1 33M      -0.084000
     21 CAT         -3.6720     1.2030    -4.4000 ca         1 33M      -0.036000
     22 CAI         -3.9840    -0.0290    -4.9990 ca         1 33M      -0.068000
     23 CAF         -3.6590    -1.1920    -4.3710 ca         1 33M      -0.105000
     24 CAG         -3.0170    -1.1880    -3.1370 ca         1 33M      -0.082000
     25 H1          -0.5590    -0.0040     0.9280 ha         1 33M       0.130000
     26 H2           1.3220    -0.8670     2.8860 hn         1 33M       0.278800
     27 H3           1.3120     0.8660     2.8820 hn         1 33M       0.278800
     28 H4           5.9700     0.8660    -0.1400 hn         1 33M       0.277800
     29 H5           5.9720    -0.8660    -0.0630 hn         1 33M       0.277800
     30 H6          -0.4110    -0.0060    -3.3560 h4         1 33M      -0.002900
     31 H7          -2.5790     0.8630     0.5460 h1         1 33M       0.010367
     32 H8          -3.8860     0.0060    -0.2840 h1         1 33M       0.010367
     33 H9          -2.6040    -0.9060     0.5230 h1         1 33M       0.010367
     34 H10         -2.2090     2.4810    -1.5850 ha         1 33M       0.113000
     35 H11         -2.7940     4.5610    -2.7170 ha         1 33M       0.103000
     36 H12         -3.9280     4.5310    -4.9010 ha         1 33M       0.103000
     37 H13         -4.4950     2.4230    -5.9870 ha         1 33M       0.108000
     38 H14         -4.4830    -0.0540    -5.9600 ha         1 33M       0.108000
     39 H15         -3.9030    -2.1370    -4.8410 ha         1 33M       0.106000
     40 H16         -2.7700    -2.1280    -2.6590 ha         1 33M       0.111000
@<TRIPOS>BOND
     1     1     2 ar  
     2     1    12 ar  
     3     1    25 1   
     4     2     3 ar  
     5     2     9 ar  
     6     3     4 1   
     7     3     5 ar  
     8     4    26 1   
     9     4    27 1   
    10     5     6 ar  
    11     6     7 1   
    12     6     8 ar  
    13     7    28 1   
    14     7    29 1   
    15     8     9 ar  
    16     9    10 ar  
    17    10    11 ar  
    18    11    12 ar  
    19    11    30 1   
    20    12    13 1   
    21    13    14 1   
    22    13    15 1   
    23    14    31 1   
    24    14    32 1   
    25    14    33 1   
    26    15    16 ar  
    27    15    24 ar  
    28    16    17 ar  
    29    16    21 ar  
    30    17    18 ar  
    31    17    34 1   
    32    18    19 ar  
    33    18    35 1   
    34    19    20 ar  
    35    19    36 1   
    36    20    21 ar  
    37    20    37 1   
    38    21    22 ar  
    39    22    23 ar  
    40    22    38 1   
    41    23    24 ar  
    42    23    39 1   
    43    24    40 1   
@<TRIPOS>SUBSTRUCTURE
     1 33M         1 TEMP              0 ****  ****    0 ROOT
