@<TRIPOS>MOLECULE
molecule
   40    43     1     0     0
SMALL
bcc


@<TRIPOS>ATOM
      1 CAL          0.0000     0.0000     0.0000 ca         1 33M      -0.146000
      2 C5           1.4000     0.0000     0.0000 ca         1 33M      -0.312600
      3 C6           2.1510     0.0000     1.2010 ca         1 33M       0.738200
      4 NAC          1.5240    -0.0010     2.4280 nv         1 33M      -1.080500
      5 N1           3.4740     0.0000     1.1140 nb         1 33M      -0.771000
      6 C2           4.0880    -0.0010    -0.0660 ca         1 33M       0.937900
      7 NAB          5.4700    -0.0000    -0.0910 nv         1 33M      -1.057500
      8 N3           3.4360    -0.0010    -1.2130 nb         1 33M      -0.714000
      9 C4           2.0950    -0.0010    -1.2340 ca         1 33M       0.675300
     10 NAM          1.4160    -0.0010    -2.3820 nb         1 33M      -0.640000
     11 CAK          0.1030    -0.0010    -2.4020 ca         1 33M       0.427200
     12 CAR         -0.6490    -0.0060    -1.2240 ca         1 33M       0.055300
     13 NAX         -2.0470    -0.0060    -1.2810 nh         1 33M      -0.610400
     14 CAA         -2.8300    -0.0110    -0.0440 c3         1 33M       0.234100
     15 CAS         -2.6930    -0.0000    -2.5150 ca         1 33M       0.137600
     16 CAV         -3.0190     1.2220    -3.1430 ca         1 33M      -0.041000
     17 CAJ         -2.7080     2.4530    -2.5460 ca         1 33M      -0.112000
     18 CAE         -3.0350     3.6120    -3.1800 ca         1 33M      -0.121000
     19 CAD         -3.6780     3.5950    -4.4170 ca         1 33M      -0.122000
     20 CAH         -3.9960     2.4200    -5.0260 ca         1 33M      -0.116000
     21 CAT         -3.6720     1.2030    -4.4000 ca         1 33M      -0.033000
     22 CAI         -3.9840    -0.0290    -4.9990 ca         1 33M      -0.108000
     23 CAF         -3.6590    -1.1920    -4.3710 ca         1 33M      -0.127000
     24 CAG         -3.0170    -1.1880    -3.1370 ca         1 33M      -0.123000
     25 H1          -0.5590    -0.0040     0.9280 ha         1 33M       0.149000
     26 H2           1.3220    -0.8670     2.8860 hn         1 33M       0.440800
     27 H3           1.3120     0.8660     2.8820 hn         1 33M       0.440800
     28 H4           5.9700     0.8660    -0.1400 hn         1 33M       0.443800
     29 H5           5.9720    -0.8660    -0.0630 hn         1 33M       0.443800
     30 H6          -0.4110    -0.0060    -3.3560 h4         1 33M       0.040100
     31 H7          -2.5790     0.8630     0.5460 h1         1 33M       0.040367
     32 H8          -3.8860     0.0060    -0.2840 h1         1 33M       0.040367
     33 H9          -2.6040    -0.9060     0.5230 h1         1 33M       0.040367
     34 H10         -2.2090     2.4810    -1.5850 ha         1 33M       0.141000
     35 H11         -2.7940     4.5610    -2.7170 ha         1 33M       0.132000
     36 H12         -3.9280     4.5310    -4.9010 ha         1 33M       0.131000
     37 H13         -4.4950     2.4230    -5.9870 ha         1 33M       0.135000
     38 H14         -4.4830    -0.0540    -5.9600 ha         1 33M       0.136000
     39 H15         -3.9030    -2.1370    -4.8410 ha         1 33M       0.134000
     40 H16         -2.7700    -2.1280    -2.6590 ha         1 33M       0.141000
@<TRIPOS>BOND
     1    19    20 ar
     2    19    18 ar
     3    20    21 ar
     4    18    17 ar
     5    21    22 ar
     6    21    16 ar
     7    22    23 ar
     8    17    16 ar
     9    16    15 ar
    10    10    11 ar
    11    10     9 ar
    12    23    24 ar
    13    11    12 ar
    14     8     9 ar
    15     8     6 ar
    16    15    24 ar
    17    15    13 1
    18     9     2 ar
    19     7     6 1
    20    12    13 1
    21    12     1 ar
    22     6     5 ar
    23    13    14 1
    24     2     1 ar
    25     2     3 ar
    26     5     3 ar
    27     3     4 1
    28     1    25 1
    29     4    26 1
    30     4    27 1
    31     7    28 1
    32     7    29 1
    33    11    30 1
    34    14    31 1
    35    14    32 1
    36    14    33 1
    37    17    34 1
    38    18    35 1
    39    19    36 1
    40    20    37 1
    41    22    38 1
    42    23    39 1
    43    24    40 1
@<TRIPOS>SUBSTRUCTURE
     1 33M         1 TEMP              0 ****  ****    0 ROOT
