@<TRIPOS>MOLECULE
33N
   44    46     1     0     0
SMALL
bcc


@<TRIPOS>ATOM
      1 C4           0.0000     0.0000     0.0000 c3         1 33N      -0.045400
      2 C5           0.5520    -1.2570     3.3270 ca         1 33N      -0.101000
      3 C6          -0.4120    -2.5000     1.5220 ca         1 33N      -0.101000
      4 C7          -2.6250     1.0990     2.2090 ca         1 33N      -0.101000
      5 C8          -2.7770    -0.7360     0.6790 ca         1 33N      -0.101000
      6 C10          0.9170    -2.4390     3.9460 ca         1 33N      -0.095750
      7 C13         -4.1550    -0.6230     0.6800 ca         1 33N      -0.095750
      8 C15          0.6180    -3.6500     3.3520 ca         1 33N      -0.101500
      9 C17          3.3440    -0.0010    -1.6260 c          1 33N       0.600700
     10 C20          5.2120    -0.0010    -3.2900 ca         1 33N      -0.002000
     11 C21          2.9410    -0.0000    -4.0910 ca         1 33N       0.419200
     12 C22          5.6210    -0.0010    -4.6110 ca         1 33N      -0.233300
     13 C24          4.6690    -0.0010    -5.6150 ca         1 33N       0.423200
     14 O19          4.1330    -0.0010    -0.7020 o          1 33N      -0.647100
     15 C18          3.8370    -0.0010    -3.0210 ca         1 33N      -0.276900
     16 N23          3.3800    -0.0010    -5.3320 nb         1 33N      -0.589000
     17 N14          2.0190    -0.0000    -1.3810 ns         1 33N      -0.196900
     18 C9           1.5300     0.0000     0.0000 c3         1 33N       0.043000
     19 C1          -0.5100     0.0000     1.4410 c3         1 33N       0.073900
     20 C3          -2.0120     0.1250     1.4430 ca         1 33N      -0.085800
     21 C16         -4.7670     0.3510     1.4460 ca         1 33N      -0.101500
     22 C12         -4.0020     1.2130     2.2090 ca         1 33N      -0.095750
     23 C2          -0.1120    -1.2880     2.1160 ca         1 33N      -0.085800
     24 C11         -0.0460    -3.6810     2.1400 ca         1 33N      -0.095750
     25 H4          -0.3610    -0.8840    -0.5110 hc         1 33N       0.024700
     26 H4A         -0.3610     0.8850    -0.5110 hc         1 33N       0.024700
     27 H5           0.7860    -0.3080     3.7930 ha         1 33N       0.109500
     28 H6          -0.9320    -2.5240     0.5720 ha         1 33N       0.109500
     29 H7          -2.0250     1.7740     2.8080 ha         1 33N       0.109500
     30 H8          -2.2970    -1.5000     0.0790 ha         1 33N       0.109500
     31 H10          1.4370    -2.4150     4.8950 ha         1 33N       0.102500
     32 H13         -4.7550    -1.2980     0.0820 ha         1 33N       0.102500
     33 H15          0.9040    -4.5760     3.8360 ha         1 33N       0.103000
     34 H21          1.8750    -0.0000    -3.8980 h4         1 33N      -0.023900
     35 H22          6.6760    -0.0010    -4.8570 ha         1 33N       0.117000
     36 H24          4.9870    -0.0010    -6.6500 h4         1 33N      -0.019900
     37 HN14         1.3690     0.0370    -2.1410 hn         1 33N       0.178500
     38 H9           1.8910     0.8850     0.5110 h1         1 33N       0.033700
     39 H9A          1.8910    -0.8840     0.5110 h1         1 33N       0.033700
     40 H1          -0.0780     0.8360     1.9770 hc         1 33N       0.037700
     41 H16         -5.8470     0.4400     1.4470 ha         1 33N       0.103000
     42 H12         -4.4820     1.9760     2.8090 ha         1 33N       0.102500
     43 H11         -0.2810    -4.6310     1.6750 ha         1 33N       0.102500
     44 H20          5.9350    -0.0010    -2.4830 ha         1 33N       0.132000
@<TRIPOS>BOND
     1     1    18 1   
     2     1    19 1   
     3     1    25 1   
     4     1    26 1   
     5     2     6 ar  
     6     2    23 ar  
     7     2    27 1   
     8     3    23 ar  
     9     3    24 ar  
    10     3    28 1   
    11     4    20 ar  
    12     4    22 ar  
    13     4    29 1   
    14     5     7 ar  
    15     5    20 ar  
    16     5    30 1   
    17     6     8 ar  
    18     6    31 1   
    19     7    21 ar  
    20     7    32 1   
    21     8    24 ar  
    22     8    33 1   
    23     9    14 2   
    24     9    15 1   
    25     9    17 1   
    26    10    12 ar  
    27    10    15 ar  
    28    10    44 1   
    29    11    15 ar  
    30    11    16 ar  
    31    11    34 1   
    32    12    13 ar  
    33    12    35 1   
    34    13    16 ar  
    35    13    36 1   
    36    17    18 1   
    37    17    37 1   
    38    18    38 1   
    39    18    39 1   
    40    19    20 1   
    41    19    23 1   
    42    19    40 1   
    43    21    22 ar  
    44    21    41 1   
    45    22    42 1   
    46    24    43 1   
@<TRIPOS>SUBSTRUCTURE
     1 33N         1 TEMP              0 ****  ****    0 ROOT
