@<TRIPOS>MOLECULE
molecule
   94    93     1     0     0
SMALL
bcc


@<TRIPOS>ATOM
      1 O19          0.0000     0.0000     0.0000 oh         1 33O      -0.600800
      2 C39          1.4290     0.0000     0.0000 c3         1 33O       0.143400
      3 C40          1.9390     0.0000     1.4420 c3         1 33O       0.141900
      4 O20          1.5610    -1.2210     2.0810 os         1 33O      -0.408600
      5 C41          1.9920    -1.3230     3.4400 c3         1 33O       0.141400
      6 C42          1.5330    -2.6620     4.0210 c3         1 33O       0.142400
      7 O21          2.1910    -3.7290     3.3350 os         1 33O      -0.410600
      8 C43          1.8320    -5.0310     3.8030 c3         1 33O       0.142400
      9 C44          2.5930    -6.0890     3.0010 c3         1 33O       0.141400
     10 O22          3.9930    -5.9670     3.2610 os         1 33O      -0.410600
     11 C45          4.7990    -6.9140     2.5560 c3         1 33O       0.141900
     12 C46          6.2710    -6.6930     2.9080 c3         1 33O       0.141900
     13 O23          6.4790    -6.9750     4.2940 os         1 33O      -0.410600
     14 C47          7.8290    -6.7970     4.7280 c3         1 33O       0.141900
     15 C48          7.9320    -7.1260     6.2190 c3         1 33O       0.142400
     16 O24          7.6490    -8.5110     6.4220 os         1 33O      -0.410600
     17 C49          7.7200    -8.9250     7.7870 c3         1 33O       0.142400
     18 C50          7.3990   -10.4180     7.8850 c3         1 33O       0.141400
     19 O25          8.4130   -11.1680     7.2110 os         1 33O      -0.410600
     20 C51          8.2080   -12.5810     7.2430 c3         1 33O       0.141400
     21 C52          9.3470   -13.2780     6.4950 c3         1 33O       0.141400
     22 O26         10.5770   -13.0580     7.1880 os         1 33O      -0.410600
     23 C53         11.7100   -13.6710     6.5690 c3         1 33O       0.141400
     24 C54         12.9640   -13.3710     7.3920 c3         1 33O       0.142400
     25 O27         12.8530   -13.9910     8.6740 os         1 33O      -0.410600
     26 C55         13.9790   -13.7720     9.5270 c3         1 33O       0.142400
     27 C56         13.7510   -14.4780    10.8640 c3         1 33O       0.141900
     28 O28         13.7050   -15.8900    10.6560 os         1 33O      -0.410600
     29 C57         13.4950   -16.6480    11.8490 c3         1 33O       0.141900
     30 C58         13.4630   -18.1400    11.5070 c3         1 33O       0.141900
     31 O29         14.7450   -18.5450    11.0230 os         1 33O      -0.410600
     32 C59         14.8230   -19.9280    10.6740 c3         1 33O       0.141400
     33 C60         16.2320   -20.2480    10.1700 c3         1 33O       0.142400
     34 O30         17.1690   -20.0740    11.2350 os         1 33O      -0.410600
     35 C61         18.5230   -20.3490    10.8690 c3         1 33O       0.142400
     36 C62         19.4330   -20.1300    12.0800 c3         1 33O       0.141400
     37 O31         19.1140   -21.0850    13.0940 os         1 33O      -0.408600
     38 C63         19.9110   -20.9680    14.2740 c3         1 33O       0.141900
     39 C64         19.4850   -22.0330    15.2860 c3         1 33O       0.143400
     40 O32         19.7750   -23.3310    14.7610 oh         1 33O      -0.600800
     41 H1          -0.3140     0.0630    -0.8870 ho         1 33O       0.399000
     42 H2           1.7900    -0.8840    -0.5110 h1         1 33O       0.028700
     43 H3           1.7900     0.8850    -0.5110 h1         1 33O       0.028700
     44 H4           3.0190     0.0890     1.4430 h1         1 33O       0.030200
     45 H5           1.5070     0.8370     1.9780 h1         1 33O       0.030200
     46 H6           1.5620    -0.5130     4.0170 h1         1 33O       0.031700
     47 H7           3.0720    -1.2630     3.4820 h1         1 33O       0.031700
     48 H8           0.4610    -2.7600     3.8990 h1         1 33O       0.032200
     49 H9           1.7820    -2.7020     5.0750 h1         1 33O       0.032200
     50 H10          2.0870    -5.1210     4.8520 h1         1 33O       0.032200
     51 H11          0.7670    -5.1790     3.6760 h1         1 33O       0.032200
     52 H12          2.4080    -5.9440     1.9440 h1         1 33O       0.031700
     53 H13          2.2560    -7.0760     3.2950 h1         1 33O       0.031700
     54 H14          4.5070    -7.9180     2.8390 h1         1 33O       0.031700
     55 H15          4.6600    -6.7840     1.4900 h1         1 33O       0.031700
     56 H16          6.5400    -5.6630     2.7050 h1         1 33O       0.031700
     57 H17          6.8890    -7.3510     2.3090 h1         1 33O       0.031700
     58 H18          8.1290    -5.7690     4.5620 h1         1 33O       0.031700
     59 H19          8.4790    -7.4580     4.1660 h1         1 33O       0.031700
     60 H20          7.2180    -6.5270     6.7710 h1         1 33O       0.031700
     61 H21          8.9340    -6.9070     6.5690 h1         1 33O       0.031700
     62 H22          7.0020    -8.3620     8.3720 h1         1 33O       0.031700
     63 H23          8.7170    -8.7440     8.1680 h1         1 33O       0.031700
     64 H24          6.4390   -10.6120     7.4230 h1         1 33O       0.031700
     65 H25          7.3650   -10.7130     8.9270 h1         1 33O       0.031700
     66 H26          8.1910   -12.9200     8.2720 h1         1 33O       0.031700
     67 H27          7.2640   -12.8200     6.7680 h1         1 33O       0.031700
     68 H28          9.1470   -14.3420     6.4440 h1         1 33O       0.031700
     69 H29          9.4200   -12.8760     5.4920 h1         1 33O       0.031700
     70 H30         11.5590   -14.7430     6.5190 h1         1 33O       0.031700
     71 H31         11.8320   -13.2760     5.5680 h1         1 33O       0.031700
     72 H32         13.0660   -12.3000     7.5170 h1         1 33O       0.031700
     73 H33         13.8350   -13.7590     6.8770 h1         1 33O       0.031700
     74 H34         14.1020   -12.7090     9.6960 h1         1 33O       0.031700
     75 H35         14.8700   -14.1680     9.0560 h1         1 33O       0.031700
     76 H36         14.5630   -14.2400    11.5400 h1         1 33O       0.031700
     77 H37         12.8140   -14.1460    11.2930 h1         1 33O       0.031700
     78 H38         14.3010   -16.4540    12.5460 h1         1 33O       0.031700
     79 H39         12.5520   -16.3600    12.2980 h1         1 33O       0.031700
     80 H40         13.2170   -18.7090    12.3960 h1         1 33O       0.031700
     81 H41         12.7150   -18.3200    10.7450 h1         1 33O       0.031700
     82 H42         14.1030   -20.1450     9.8940 h1         1 33O       0.031700
     83 H43         14.6040   -20.5340    11.5450 h1         1 33O       0.031700
     84 H44         16.4840   -19.5810     9.3550 h1         1 33O       0.032200
     85 H45         16.2670   -21.2730     9.8220 h1         1 33O       0.032200
     86 H46         18.6060   -21.3770    10.5370 h1         1 33O       0.032200
     87 H47         18.8220   -19.6850    10.0670 h1         1 33O       0.032200
     88 H48         19.2840   -19.1290    12.4670 h1         1 33O       0.031700
     89 H49         20.4670   -20.2510    11.7810 h1         1 33O       0.031700
     90 H50         20.9550   -21.1080    14.0210 h1         1 33O       0.030200
     91 H51         19.7730   -19.9840    14.7070 h1         1 33O       0.030200
     92 H52         18.4210   -21.9490    15.4730 h1         1 33O       0.028700
     93 H53         20.0270   -21.8890    16.2130 h1         1 33O       0.028700
     94 H54         19.5700   -23.9850    15.4090 ho         1 33O       0.399000
@<TRIPOS>BOND
     1     1     2 1
     2     2     3 1
     3     3     4 1
     4    14    15 1
     5    14    13 1
     6     4     5 1
     7    11    12 1
     8    11    10 1
     9    15    16 1
    10    12    13 1
    11    16    17 1
    12     9    10 1
    13     9     8 1
    14     7     8 1
    15     7     6 1
    16     5     6 1
    17    17    18 1
    18    18    19 1
    19    19    20 1
    20    20    21 1
    21    21    22 1
    22    22    23 1
    23    25    26 1
    24    25    24 1
    25    23    24 1
    26    26    27 1
    27    27    28 1
    28    28    29 1
    29    29    30 1
    30    30    31 1
    31    32    31 1
    32    32    33 1
    33    35    34 1
    34    35    36 1
    35    33    34 1
    36    36    37 1
    37    37    38 1
    38    38    39 1
    39    40    39 1
    40     1    41 1
    41     2    42 1
    42     2    43 1
    43     3    44 1
    44     3    45 1
    45     5    46 1
    46     5    47 1
    47     6    48 1
    48     6    49 1
    49     8    50 1
    50     8    51 1
    51     9    52 1
    52     9    53 1
    53    11    54 1
    54    11    55 1
    55    12    56 1
    56    12    57 1
    57    14    58 1
    58    14    59 1
    59    15    60 1
    60    15    61 1
    61    17    62 1
    62    17    63 1
    63    18    64 1
    64    18    65 1
    65    20    66 1
    66    20    67 1
    67    21    68 1
    68    21    69 1
    69    23    70 1
    70    23    71 1
    71    24    72 1
    72    24    73 1
    73    26    74 1
    74    26    75 1
    75    27    76 1
    76    27    77 1
    77    29    78 1
    78    29    79 1
    79    30    80 1
    80    30    81 1
    81    32    82 1
    82    32    83 1
    83    33    84 1
    84    33    85 1
    85    35    86 1
    86    35    87 1
    87    36    88 1
    88    36    89 1
    89    38    90 1
    90    38    91 1
    91    39    92 1
    92    39    93 1
    93    40    94 1
@<TRIPOS>SUBSTRUCTURE
     1 33O         1 TEMP              0 ****  ****    0 ROOT
