@<TRIPOS>MOLECULE
33O
   94    93     1     0     0
SMALL
bcc


@<TRIPOS>ATOM
      1 O19        -1.4080    3.0520   -1.0210 oh        1 33O     -0.599800
      2 C39        -1.7530    2.6460    0.2870 c3        1 33O      0.131400
      3 C40        -1.8370    1.1270    0.4000 c3        1 33O      0.087400
      4 O20        -0.5110    0.6420    0.2050 os        1 33O     -0.438600
      5 C41        -0.4450   -0.7830    0.2310 c3        1 33O      0.128400
      6 C42         1.0350   -1.1500    0.2050 c3        1 33O      0.127400
      7 O21         1.3610   -1.6050    1.5160 os        1 33O     -0.428600
      8 C43         2.7600   -1.8360    1.6760 c3        1 33O      0.127400
      9 C44         2.9380   -2.4880    3.0420 c3        1 33O      0.127400
     10 O22         3.2360   -3.8620    2.7990 os        1 33O     -0.429600
     11 C45         3.2720   -4.6270    4.0020 c3        1 33O      0.127400
     12 C46         3.7810   -6.0130    3.6190 c3        1 33O      0.127400
     13 O23         5.1170   -6.1040    4.1090 os        1 33O     -0.429600
     14 C47         5.7700   -7.2960    3.6770 c3        1 33O      0.127400
     15 C48         7.1050   -7.3490    4.4120 c3        1 33O      0.127400
     16 O24         6.9850   -8.3730    5.3970 os        1 33O     -0.429600
     17 C49         8.1100   -8.4150    6.2730 c3        1 33O      0.127400
     18 C50         7.9360   -9.6550    7.1430 c3        1 33O      0.127400
     19 O25         8.9020  -10.6030    6.6950 os        1 33O     -0.429600
     20 C51         8.7450  -11.8730    7.3240 c3        1 33O      0.127400
     21 C52         9.9410  -12.7190    6.8990 c3        1 33O      0.127400
     22 O26        10.7970  -12.8100    8.0370 os        1 33O     -0.429600
     23 C53        12.0410  -13.4350    7.7270 c3        1 33O      0.127400
     24 C54        12.7740  -13.6210    9.0520 c3        1 33O      0.127400
     25 O27        12.7360  -15.0170    9.3430 os        1 33O     -0.429600
     26 C55        13.2450  -15.3110   10.6420 c3        1 33O      0.127400
     27 C56        13.3200  -16.8300   10.7450 c3        1 33O      0.127400
     28 O28        14.7030  -17.1730   10.6770 os        1 33O     -0.429600
     29 C57        14.9060  -18.5820   10.5980 c3        1 33O      0.127400
     30 C58        16.4100  -18.8090   10.7110 c3        1 33O      0.127400
     31 O29        16.6420  -19.3510   12.0100 os        1 33O     -0.429600
     32 C59        18.0320  -19.4540   12.3120 c3        1 33O      0.127400
     33 C60        18.1330  -20.2020   13.6370 c3        1 33O      0.127400
     34 O30        18.6030  -21.5130   13.3290 os        1 33O     -0.428600
     35 C61        18.5820  -22.3750   14.4640 c3        1 33O      0.127400
     36 C62        19.2630  -23.6710   14.0350 c3        1 33O      0.128400
     37 O31        20.5420  -23.6860   14.6670 os        1 33O     -0.438600
     38 C63        21.3590  -24.7630   14.2130 c3        1 33O      0.087400
     39 C64        22.6530  -24.6800   15.0150 c3        1 33O      0.131400
     40 O32        22.4350  -24.9440   16.3850 oh        1 33O     -0.599800
     41 H1         -0.5700    2.6230   -1.2360 ho        1 33O      0.412000
     42 H2         -1.0080    3.0450    1.0250 h1        1 33O      0.053700
     43 H3         -2.7630    3.0980    0.4760 h1        1 33O      0.053700
     44 H4         -2.2080    0.8270    1.4150 h1        1 33O      0.039200
     45 H5         -2.5140    0.7060   -0.3890 h1        1 33O      0.039200
     46 H6         -0.9380   -1.1780    1.1590 h1        1 33O      0.045200
     47 H7         -0.9660   -1.1900   -0.6760 h1        1 33O      0.045200
     48 H8          1.2190   -1.9780   -0.5290 h1        1 33O      0.043200
     49 H9          1.6620   -0.2600   -0.0640 h1        1 33O      0.043200
     50 H10         3.1380   -2.5080    0.8610 h1        1 33O      0.044200
     51 H11         3.3010   -0.8540    1.6370 h1        1 33O      0.044200
     52 H12         3.7950   -2.0170    3.5910 h1        1 33O      0.043700
     53 H13         2.0020   -2.3960    3.6530 h1        1 33O      0.043700
     54 H14         3.9560   -4.1450    4.7500 h1        1 33O      0.043700
     55 H15         2.2360   -4.6940    4.4260 h1        1 33O      0.043700
     56 H16         3.1550   -6.8070    4.1050 h1        1 33O      0.043200
     57 H17         3.7650   -6.1490    2.5050 h1        1 33O      0.043200
     58 H18         5.1440   -8.1940    3.9240 h1        1 33O      0.043700
     59 H19         5.9360   -7.2440    2.5690 h1        1 33O      0.043700
     60 H20         7.9320   -7.6160    3.7030 h1        1 33O      0.043700
     61 H21         7.3300   -6.3640    4.9010 h1        1 33O      0.043700
     62 H22         9.0620   -8.4740    5.6800 h1        1 33O      0.043700
     63 H23         8.1180   -7.4890    6.9070 h1        1 33O      0.043700
     64 H24         8.1340   -9.4090    8.2200 h1        1 33O      0.043200
     65 H25         6.9010  -10.0750    7.0360 h1        1 33O      0.043200
     66 H26         8.7180  -11.7540    8.4400 h1        1 33O      0.043700
     67 H27         7.7890  -12.3430    6.9710 h1        1 33O      0.043700
     68 H28         9.6080  -13.7490    6.6060 h1        1 33O      0.043700
     69 H29        10.4840  -12.2390    6.0420 h1        1 33O      0.043700
     70 H30        11.8660  -14.4240    7.2260 h1        1 33O      0.043200
     71 H31        12.6300  -12.7660    7.0450 h1        1 33O      0.043200
     72 H32        13.8420  -13.2930    8.9580 h1        1 33O      0.043700
     73 H33        12.2710  -13.0400    9.8700 h1        1 33O      0.043700
     74 H34        14.2600  -14.8520   10.7760 h1        1 33O      0.043700
     75 H35        12.5410  -14.9010   11.4140 h1        1 33O      0.043700
     76 H36        12.9020  -17.1780   11.7260 h1        1 33O      0.043700
     77 H37        12.7580  -17.3150    9.9030 h1        1 33O      0.043700
     78 H38        14.3620  -19.1010   11.4310 h1        1 33O      0.043200
     79 H39        14.5280  -18.9550    9.6100 h1        1 33O      0.043200
     80 H40        16.7540  -19.5470    9.9390 h1        1 33O      0.043700
     81 H41        16.9690  -17.8440   10.5870 h1        1 33O      0.043700
     82 H42        18.5660  -20.0130   11.4980 h1        1 33O      0.043700
     83 H43        18.4650  -18.4240   12.4100 h1        1 33O      0.043700
     84 H44        18.8710  -19.6980   14.3160 h1        1 33O      0.044200
     85 H45        17.1320  -20.2560   14.1410 h1        1 33O      0.044200
     86 H46        19.1300  -21.9010   15.3210 h1        1 33O      0.043200
     87 H47        17.5180  -22.5720   14.7590 h1        1 33O      0.043200
     88 H48        18.6720  -24.5580   14.3840 h1        1 33O      0.045200
     89 H49        19.3800  -23.7090   12.9200 h1        1 33O      0.045200
     90 H50        20.8360  -25.7380   14.3990 h1        1 33O      0.039200
     91 H51        21.5660  -24.6490   13.1170 h1        1 33O      0.039200
     92 H52        23.3640  -25.4790   14.6730 h1        1 33O      0.053700
     93 H53        23.1200  -23.6680   14.8860 h1        1 33O      0.053700
     94 H54        21.7740  -24.3100   16.6910 ho        1 33O      0.412000
@<TRIPOS>BOND
     1    1    2 1   
     2    1   41 1   
     3    2    3 1   
     4    2   42 1   
     5    2   43 1   
     6    3    4 1   
     7    3   44 1   
     8    3   45 1   
     9    4    5 1   
    10    5    6 1   
    11    5   46 1   
    12    5   47 1   
    13    6    7 1   
    14    6   48 1   
    15    6   49 1   
    16    7    8 1   
    17    8    9 1   
    18    8   50 1   
    19    8   51 1   
    20    9   10 1   
    21    9   52 1   
    22    9   53 1   
    23   10   11 1   
    24   11   12 1   
    25   11   54 1   
    26   11   55 1   
    27   12   13 1   
    28   12   56 1   
    29   12   57 1   
    30   13   14 1   
    31   14   15 1   
    32   14   58 1   
    33   14   59 1   
    34   15   16 1   
    35   15   60 1   
    36   15   61 1   
    37   16   17 1   
    38   17   18 1   
    39   17   62 1   
    40   17   63 1   
    41   18   19 1   
    42   18   64 1   
    43   18   65 1   
    44   19   20 1   
    45   20   21 1   
    46   20   66 1   
    47   20   67 1   
    48   21   22 1   
    49   21   68 1   
    50   21   69 1   
    51   22   23 1   
    52   23   24 1   
    53   23   70 1   
    54   23   71 1   
    55   24   25 1   
    56   24   72 1   
    57   24   73 1   
    58   25   26 1   
    59   26   27 1   
    60   26   74 1   
    61   26   75 1   
    62   27   28 1   
    63   27   76 1   
    64   27   77 1   
    65   28   29 1   
    66   29   30 1   
    67   29   78 1   
    68   29   79 1   
    69   30   31 1   
    70   30   80 1   
    71   30   81 1   
    72   31   32 1   
    73   32   33 1   
    74   32   82 1   
    75   32   83 1   
    76   33   34 1   
    77   33   84 1   
    78   33   85 1   
    79   34   35 1   
    80   35   36 1   
    81   35   86 1   
    82   35   87 1   
    83   36   37 1   
    84   36   88 1   
    85   36   89 1   
    86   37   38 1   
    87   38   39 1   
    88   38   90 1   
    89   38   91 1   
    90   39   40 1   
    91   39   92 1   
    92   39   93 1   
    93   40   94 1   
@<TRIPOS>SUBSTRUCTURE
     1 33O         1 TEMP              0 ****  ****    0 ROOT
