@<TRIPOS>MOLECULE
molecule
   40    40     1     0     0
SMALL
bcc


@<TRIPOS>ATOM
      1 N1           0.0000     0.0000     0.0000 nb         1 33P      -0.734000
      2 C2           1.3190     0.0000     0.0000 ca         1 33P       0.333600
      3 C2A          2.0640    -0.0000    -1.3100 c3         1 33P      -0.118400
      4 C3           2.0270     0.0000     1.1920 ca         1 33P      -0.028200
      5 O3           3.3850    -0.0020     1.1850 oh         1 33P      -0.507100
      6 C4           1.3260     0.0010     2.3940 ca         1 33P      -0.053300
      7 C4A          2.0550    -0.0010     3.7120 c3         1 33P       0.190100
      8 C5          -0.0590    -0.0050     2.3490 ca         1 33P      -0.109600
      9 C6          -0.6930     0.0010     1.1220 ca         1 33P       0.418200
     10 C5A         -0.8620    -0.0040     3.6230 c3         1 33P       0.182700
     11 O4A         -2.2550     0.0020     3.3070 os         1 33P      -0.560200
     12 PA          -3.0500     0.0020     4.7070 p5         1 33P       1.171900
     13 O1A         -2.6810     1.2070     5.4840 o          1 33P      -0.919167
     14 O2A         -4.6350     0.0090     4.4250 o          1 33P      -0.919167
     15 O3A         -2.6610    -1.3160     5.5450 o          1 33P      -0.919167
     16 PB           3.2490     4.7120     4.5070 p5         1 33P       1.137900
     17 O1B          2.9630     5.5700     5.6800 o          1 33P      -0.906500
     18 O2B          4.1040     5.5470     3.4290 o          1 33P      -0.906500
     19 O3B          1.8640     4.2330     3.8420 o          1 33P      -0.906500
     20 N7           2.2930     1.3850     4.1410 n7         1 33P      -0.708200
     21 C8           3.0040     1.3130     5.4230 c3         1 33P       0.145800
     22 C9           3.2850     2.7290     5.9300 c3         1 33P       0.173100
     23 O4B          4.0910     3.4240     4.9780 os         1 33P      -0.555200
     24 C10          4.0240     2.6550     7.2680 c3         1 33P      -0.097100
     25 H2A1         2.6190    -0.9250    -1.4100 hc         1 33P       0.021033
     26 H2A2         1.3580     0.0870    -2.1270 hc         1 33P       0.021033
     27 H2A3         2.7510     0.8370    -1.3350 hc         1 33P       0.021033
     28 HO3          3.6980    -0.8820     1.0560 ho         1 33P       0.371000
     29 H4A1         3.0040    -0.5120     3.6000 h1         1 33P       0.012700
     30 H4A2         1.4560    -0.5110     4.4560 h1         1 33P       0.012700
     31 H6          -1.7760    -0.0010     1.0810 h4         1 33P       0.057100
     32 H5A1        -0.6190     0.8780     4.2030 h1         1 33P       0.084700
     33 H5A2        -0.6260    -0.8910     4.1990 h1         1 33P       0.084700
     34 HN7          2.8680     1.8490     3.4660 hn         1 33P       0.396800
     35 H81          3.9400     0.7850     5.2880 h1         1 33P      -0.008300
     36 H82          2.3930     0.7850     6.1460 h1         1 33P      -0.008300
     37 H9           2.3490     3.2570     6.0640 h1         1 33P       0.114700
     38 H101         5.0080     3.0960     7.1620 hc         1 33P       0.005367
     39 H102         4.1240     1.6190     7.5690 hc         1 33P       0.005367
     40 H103         3.4640     3.1970     8.0210 hc         1 33P       0.005367
@<TRIPOS>BOND
     1     1     2 ar
     2     1     9 ar
     3     2     3 1
     4     2     4 ar
     5     3    25 1
     6     3    26 1
     7     3    27 1
     8     4     5 1
     9     4     6 ar
    10     5    28 1
    11     6     7 1
    12     6     8 ar
    13     7    20 1
    14     7    29 1
    15     7    30 1
    16     8     9 ar
    17     8    10 1
    18     9    31 1
    19    10    11 1
    20    10    32 1
    21    10    33 1
    22    11    12 1
    23    12    13 1
    24    12    14 1
    25    12    15 1
    26    16    17 1
    27    16    18 1
    28    16    19 1
    29    16    23 1
    30    20    21 1
    31    20    34 1
    32    21    22 1
    33    21    35 1
    34    21    36 1
    35    22    23 1
    36    22    24 1
    37    22    37 1
    38    24    38 1
    39    24    39 1
    40    24    40 1
@<TRIPOS>SUBSTRUCTURE
     1 33P         1 TEMP              0 ****  ****    0 ROOT
