@<TRIPOS>MOLECULE
33R
   40    42     1     0     0
SMALL
bcc


@<TRIPOS>ATOM
      1 C15         0.3360   -0.1020   -0.0440 ca        1 33R      0.026000
      2 C17         0.2540   -0.7160    2.3030 ca        1 33R     -0.126000
      3 C20         2.3470   -0.0110    1.3110 ca        1 33R     -0.064000
      4 C22         1.7080    0.1580    0.0780 ca        1 33R     -0.088000
      5 C28         0.2000    2.3770   -8.2620 c2        1 33R     -0.193000
      6 CL21        4.0090    0.3200    1.4270 cl        1 33R     -0.005000
      7 C01         2.0850    3.9200   -7.8640 c3        1 33R     -0.196000
      8 C02         2.8810    2.7930   -7.3960 c1        1 33R     -0.087000
      9 C03         2.2940    1.5100   -7.3860 c2        1 33R     -0.245000
     10 N04         3.1700    0.4090   -6.8920 no        1 33R      0.582000
     11 O05         4.2590    0.2560   -7.3670 o         1 33R     -0.374000
     12 O06         2.7520   -0.3230   -6.0280 o         1 33R     -0.374000
     13 C07         0.9830    1.2620   -7.7740 c2        1 33R      0.166000
     14 C08         0.3090   -0.0600   -7.7760 c3        1 33R     -0.176000
     15 C09        -1.0080   -0.0140   -7.0420 c2        1 33R     -0.113000
     16 N10        -1.2000    0.1150   -5.7660 n2        1 33R     -0.090000
     17 C12        -0.5370    0.2270   -3.5390 c2        1 33R     -0.119000
     18 N13         0.3300   -0.0040   -2.5280 n2        1 33R     -0.170000
     19 C14        -0.3520    0.0900   -1.3170 c2        1 33R     -0.039000
     20 C16        -0.3820   -0.5470    1.0770 ca        1 33R     -0.119000
     21 C18         1.6200   -0.4460    2.4280 ca        1 33R     -0.069000
     22 C23        -1.7130    0.3730   -1.4290 c2        1 33R     -0.518000
     23 S24        -2.1740    0.5330   -3.0160 ss        1 33R      0.566000
     24 C25        -2.2330   -0.1560   -8.0010 c2        1 33R      0.392000
     25 O26        -2.8450   -1.2440   -7.9920 o         1 33R     -0.525000
     26 O27        -2.4460    0.8390   -8.7430 o         1 33R     -0.525000
     27 C29         0.7070    3.6270   -8.3110 c2        1 33R     -0.109000
     28 H171       -0.3190   -1.0650    3.1750 ha        1 33R      0.142000
     29 H221        2.2880    0.4920   -0.7990 ha        1 33R      0.178000
     30 H281       -0.8460    2.1410   -8.5770 ha        1 33R      0.231000
     31 H011        2.0580    4.6700   -7.0170 hc        1 33R      0.159000
     32 H021        2.6660    4.4130   -8.6990 hc        1 33R      0.159000
     33 H082        0.0890   -0.3260   -8.8520 hc        1 33R      0.135000
     34 H081        0.9500   -0.8790   -7.3510 hc        1 33R      0.135000
     35 H111        0.7270   -0.0570   -5.1180 hn        1 33R      0.225000
     36 H161       -1.4550   -0.7720    0.9850 ha        1 33R      0.142000
     37 H231       -2.3960    0.4860   -0.5910 h4        1 33R      0.168000
     38 H291        0.1030    4.4690   -8.6830 ha        1 33R      0.135000
     39 CL19        2.3680   -0.6570    3.9400 cl        1 33R     -0.016000
     40 N11        -0.1820    0.3390   -4.8960 nh        1 33R     -0.201000
@<TRIPOS>BOND
     1    1    4 1   
     2    1   19 1   
     3    1   20 1   
     4    2   20 1   
     5    2   21 1   
     6    2   28 1   
     7    3    4 1   
     8    3    6 1   
     9    3   21 1   
    10    4   29 1   
    11    5   13 1   
    12    5   27 1   
    13    5   30 1   
    14    7    8 1   
    15    7   27 1   
    16    7   31 1   
    17    7   32 1   
    18    8    9 1   
    19    9   10 1   
    20    9   13 1   
    21   10   11 1   
    22   10   12 1   
    23   13   14 1   
    24   14   15 1   
    25   14   33 1   
    26   14   34 1   
    27   15   16 1   
    28   15   24 1   
    29   16   40 1   
    30   17   18 1   
    31   17   23 1   
    32   17   40 1   
    33   18   19 1   
    34   19   22 1   
    35   20   36 1   
    36   21   39 1   
    37   22   23 1   
    38   22   37 1   
    39   24   25 1   
    40   24   26 1   
    41   27   38 1   
    42   35   40 1   
@<TRIPOS>SUBSTRUCTURE
     1 33R         1 TEMP              0 ****  ****    0 ROOT
