@<TRIPOS>MOLECULE
33T
   50    52     1     0     0
SMALL
bcc


@<TRIPOS>ATOM
      1 C1          0.5080   -0.3790   -0.0170 c3        1 33T     -0.119100
      2 C2          1.9540    0.0590    0.2080 c3        1 33T      0.247500
      3 C3          2.2500    0.0990    1.7340 c3        1 33T      0.178800
      4 N1          1.6840    1.2790    2.3650 nh        1 33T     -0.637000
      5 C4          2.1190    2.5170    1.7350 c3        1 33T      0.172800
      6 C5          1.8340    2.5050    0.2190 c3        1 33T      0.213800
      7 N2          2.2960    1.3100   -0.4530 n3        1 33T     -0.826500
      8 S1          2.9200    1.3440   -1.9250 sy        1 33T      1.486200
      9 O1          2.3840    0.3400   -2.7490 o         1 33T     -0.621800
     10 O2          2.9950    2.6420   -2.4470 o         1 33T     -0.621800
     11 C6          4.6000    0.8190   -1.6710 ca        1 33T     -0.230500
     12 C7          4.9640   -0.3990   -2.2500 ca        1 33T     -0.033000
     13 C8          6.2820   -0.8580   -2.2250 ca        1 33T     -0.068000
     14 C9          7.2670   -0.0700   -1.6150 ca        1 33T     -0.159600
     15 C10         6.9220    1.1370   -0.9940 ca        1 33T     -0.128000
     16 C11         5.5900    1.5660   -1.0180 ca        1 33T      0.112400
     17 CL1         5.2230    3.0200   -0.2370 cl        1 33T     -0.016400
     18 C12         8.6410   -0.5720   -1.6370 c         1 33T      0.574700
     19 O3          9.0620   -1.7160   -1.6090 o         1 33T     -0.388100
     20 N3          9.7270    0.4900   -1.7660 n4        1 33T     -0.765400
     21 C13         1.7660    1.2860    3.7910 ca        1 33T      0.122600
     22 C14         2.9680    1.0530    4.4890 ca        1 33T     -0.140000
     23 C15         3.0050    1.0410    5.8770 ca        1 33T     -0.133000
     24 C16         1.8250    1.2710    6.6070 ca        1 33T      0.134900
     25 C17         0.6150    1.5090    5.9310 ca        1 33T     -0.118000
     26 C18         0.5880    1.5140    4.5390 ca        1 33T     -0.120300
     27 C19        -0.7450    1.7730    3.8320 c3        1 33T      0.701200
     28 F1         -1.1620    0.7620    3.0050 f         1 33T     -0.231300
     29 F2         -1.8090    1.9620    4.6810 f         1 33T     -0.231300
     30 F3         -0.7530    2.8980    3.0430 f         1 33T     -0.231300
     31 F4          1.8520    1.2630    7.9580 f         1 33T     -0.119900
     32 H1          0.3720   -1.4020    0.4090 hc        1 33T      0.063367
     33 H1A         0.2680   -0.4130   -1.1070 hc        1 33T      0.063367
     34 H1B        -0.2040    0.3140    0.4950 hc        1 33T      0.063367
     35 H2          2.6340   -0.7370   -0.2290 h1        1 33T      0.040700
     36 H3          1.7800   -0.8100    2.2020 h1        1 33T      0.045200
     37 H3A         3.3670    0.0350    1.8830 h1        1 33T      0.045200
     38 H4          3.2170    2.7110    1.9070 h1        1 33T      0.052700
     39 H4A         1.5300    3.3650    2.1870 h1        1 33T      0.052700
     40 H5          2.3340    3.4080   -0.2380 h1        1 33T      0.076700
     41 H5A         0.7180    2.5980    0.0670 h1        1 33T      0.076700
     42 H7          4.1910   -1.0150   -2.7600 ha        1 33T      0.207000
     43 H8          6.5430   -1.8260   -2.6860 ha        1 33T      0.177000
     44 H10         7.6680    1.7470   -0.4630 ha        1 33T      0.143000
     45 HN3         9.5100    1.1090   -2.5530 hn        1 33T      0.470467
     46 HN3A       10.6390    0.0430   -1.9230 hn        1 33T      0.470467
     47 H14         3.9000    0.8740    3.9300 ha        1 33T      0.138000
     48 H15         3.9480    0.8560    6.4130 ha        1 33T      0.159000
     49 H17        -0.3070    1.6880    6.5110 ha        1 33T      0.181000
     50 H33         9.7730    1.0480   -0.9090 hn        1 33T      0.470467
@<TRIPOS>BOND
     1    1    2 1   
     2    1   32 1   
     3    1   33 1   
     4    1   34 1   
     5    2    3 1   
     6    2    7 1   
     7    2   35 1   
     8    3    4 1   
     9    3   36 1   
    10    3   37 1   
    11    4    5 1   
    12    4   21 1   
    13    5    6 1   
    14    5   38 1   
    15    5   39 1   
    16    6    7 1   
    17    6   40 1   
    18    6   41 1   
    19    7    8 1   
    20    8    9 2   
    21    8   10 2   
    22    8   11 1   
    23   11   12 ar  
    24   11   16 ar  
    25   12   13 ar  
    26   12   42 1   
    27   13   14 ar  
    28   13   43 1   
    29   14   15 ar  
    30   14   18 1   
    31   15   16 ar  
    32   15   44 1   
    33   16   17 1   
    34   18   19 2   
    35   18   20 1   
    36   20   45 1   
    37   20   46 1   
    38   20   50 1   
    39   21   22 ar  
    40   21   26 ar  
    41   22   23 ar  
    42   22   47 1   
    43   23   24 ar  
    44   23   48 1   
    45   24   25 ar  
    46   24   31 1   
    47   25   26 ar  
    48   25   49 1   
    49   26   27 1   
    50   27   28 1   
    51   27   29 1   
    52   27   30 1   
@<TRIPOS>SUBSTRUCTURE
     1 33T         1 TEMP              0 ****  ****    0 ROOT
