@<TRIPOS>MOLECULE
33V
   43    45     1     0     0
SMALL
bcc


@<TRIPOS>ATOM
      1 S1           0.0000     0.0000     0.0000 ss         1 33V      -0.451200
      2 C2           1.8230     0.0000     0.0000 c3         1 33V       0.100700
      3 C3           2.3510     0.0000     1.4150 c3         1 33V      -0.009500
      4 N4           2.6630     1.3930     1.7830 n7         1 33V      -0.539200
      5 C5           1.6150     2.1090     2.3450 c3         1 33V       0.145800
      6 C6           0.4570     2.3520     1.3620 c3         1 33V      -0.126700
      7 C7          -0.3380     3.5830     1.8020 c3         1 33V       0.202400
      8 O8           0.5100     4.7330     1.7750 oh         1 33V      -0.585800
      9 C31          3.5990    -0.8410     1.4930 c          1 33V       0.985600
     10 O32          4.6850    -0.3130     1.4880 o          1 33V      -0.880800
     11 O33          3.5030    -2.1790     1.5690 o          1 33V      -0.880800
     12 C61         -0.4470     1.1440     1.3510 c3         1 33V       0.078400
     13 C62         -1.8950     1.6020     1.1630 c3         1 33V       0.130500
     14 N63         -2.8140     0.4350     1.2180 n7         1 33V      -0.404000
     15 N64         -3.8600     0.7280     0.2430 n3         1 33V      -0.414400
     16 C65         -3.1320     1.3100    -0.9100 c3         1 33V       0.115500
     17 C66         -2.0830     2.2160    -0.2440 c3         1 33V      -0.050400
     18 C67         -4.6180    -0.4480    -0.1860 c3         1 33V       0.297900
     19 S68         -5.9290     0.1140    -1.3160 ss         1 33V      -0.420200
     20 C69         -5.0070     1.1110    -2.5250 c3         1 33V       0.092700
     21 C70         -4.1020     2.1000    -1.7760 c3         1 33V      -0.026400
     22 H2           2.1790     0.8850    -0.5130 h1         1 33V       0.056700
     23 H1           2.1790    -0.8850    -0.5130 h1         1 33V       0.056700
     24 H3           1.5970    -0.3930     2.0850 h1         1 33V       0.053700
     25 H41          3.0080     1.8810     0.9790 hn         1 33V       0.257800
     26 H7           1.2360     1.5570     3.1970 h1         1 33V       0.024200
     27 H6           1.9910     3.0670     2.6830 h1         1 33V       0.024200
     28 H8           0.8580     2.5110     0.3680 hc         1 33V       0.057700
     29 H9          -0.7100     3.4310     2.8080 h1         1 33V      -0.006300
     30 H72         -1.1720     3.7340     1.1270 h1         1 33V      -0.006300
     31 H81          0.0100     5.4970     2.0080 ho         1 33V       0.378000
     32 H13         -0.3550     0.6250     2.2970 h1         1 33V       0.068700
     33 H14         -2.1660     2.3250     1.9230 h1         1 33V       0.027700
     34 H15         -3.2180     0.3710     2.1310 hn         1 33V       0.264800
     35 H16         -2.6500     0.5310    -1.4880 h1         1 33V       0.053700
     36 H17         -2.4530     3.2310    -0.1670 hc         1 33V       0.042700
     37 H18         -1.1510     2.1860    -0.7970 hc         1 33V       0.042700
     38 H20         -3.9610    -1.1380    -0.7020 h2         1 33V       0.047700
     39 H19         -5.0610    -0.9310     0.6770 h2         1 33V       0.047700
     40 H21         -5.7030     1.6590    -3.1480 h1         1 33V       0.042700
     41 H22         -4.3980     0.4590    -3.1400 h1         1 33V       0.042700
     42 H23         -3.5480     2.6970    -2.4900 hc         1 33V       0.030700
     43 H24         -4.7090     2.7420    -1.1490 hc         1 33V       0.030700
@<TRIPOS>BOND
     1     1     2 1   
     2     1    12 1   
     3     2     3 1   
     4     2    22 1   
     5     2    23 1   
     6     3     4 1   
     7     3     9 1   
     8     3    24 1   
     9     4     5 1   
    10     4    25 1   
    11     5     6 1   
    12     5    26 1   
    13     5    27 1   
    14     6     7 1   
    15     6    12 1   
    16     6    28 1   
    17     7     8 1   
    18     7    29 1   
    19     7    30 1   
    20     8    31 1   
    21     9    10 1   
    22     9    11 1   
    23    12    13 1   
    24    12    32 1   
    25    13    14 1   
    26    13    17 1   
    27    13    33 1   
    28    14    15 1   
    29    14    34 1   
    30    15    16 1   
    31    15    18 1   
    32    16    17 1   
    33    16    21 1   
    34    16    35 1   
    35    17    36 1   
    36    17    37 1   
    37    18    19 1   
    38    18    38 1   
    39    18    39 1   
    40    19    20 1   
    41    20    21 1   
    42    20    40 1   
    43    20    41 1   
    44    21    42 1   
    45    21    43 1   
@<TRIPOS>SUBSTRUCTURE
     1 33V         1 TEMP              0 ****  ****    0 ROOT
