@<TRIPOS>MOLECULE
33Y
   56    59     1     0     0
SMALL
bcc


@<TRIPOS>ATOM
      1 F32          0.0000     0.0000     0.0000 f          1 33Y      -0.113900
      2 C24          1.3510     0.0000     0.0000 ca         1 33Y       0.070900
      3 C23          2.0450     0.0000     1.2020 ca         1 33Y       0.095900
      4 F26          1.3670     0.0060     2.3710 f          1 33Y      -0.114900
      5 C22          3.4310    -0.0060     1.2090 ca         1 33Y      -0.112000
      6 C21          4.1290    -0.0130     0.0200 ca         1 33Y      -0.074000
      7 C25          2.0400    -0.0070    -1.1960 ca         1 33Y      -0.056000
      8 C20          3.4370    -0.0130    -1.1940 ca         1 33Y      -0.139600
      9 C18          4.1800    -0.0190    -2.4690 c          1 33Y       0.605700
     10 O19          3.7930     0.6570    -3.4020 o          1 33Y      -0.626100
     11 N12          5.2880    -0.7760    -2.6010 n          1 33Y      -0.049000
     12 C13          6.0670    -0.6640    -3.8340 c3         1 33Y       0.047000
     13 C14          6.4520    -2.0640    -4.3320 c3         1 33Y       0.014200
     14 C27          6.8640    -1.9880    -5.8040 c3         1 33Y      -0.011100
     15 C28          7.6200    -2.5990    -3.5010 c3         1 33Y      -0.011100
     16 C9           5.2660    -2.9810    -4.1860 cc         1 33Y      -0.122400
     17 C5           4.4460    -3.5860    -5.2240 ca         1 33Y      -0.077800
     18 C6           4.4470    -3.5350    -6.6220 ca         1 33Y      -0.063000
     19 C1           3.5160    -4.2390    -7.3300 ca         1 33Y      -0.124000
     20 C11          5.6330    -1.6070    -1.5720 c2         1 33Y      -0.045400
     21 C10          5.3480    -2.9430    -1.6890 cf         1 33Y      -0.099200
     22 C15          5.5960    -3.8800    -0.5880 c          1 33Y       0.718300
     23 O17          5.3020    -5.1890    -0.7380 os         1 33Y      -0.410900
     24 C29          5.5740    -6.0590     0.3930 c3         1 33Y       0.182100
     25 C31          4.5800    -7.2220     0.3910 c3         1 33Y      -0.013600
     26 C30          7.0000    -6.6040     0.2870 c3         1 33Y      -0.013600
     27 O16          6.0640    -3.4780     0.4590 o          1 33Y      -0.584000
     28 C8           4.7670    -3.3930    -2.9860 cd         1 33Y      -0.220100
     29 N7           3.7110    -4.2390    -3.1950 na         1 33Y       0.391600
     30 C4           3.4820    -4.3670    -4.5550 ca         1 33Y      -0.226200
     31 C3           2.5450    -5.0750    -5.2970 ca         1 33Y      -0.099000
     32 C2           2.5630    -5.0070    -6.6730 ca         1 33Y      -0.082000
     33 H22          3.9680    -0.0060     2.1500 ha         1 33Y       0.128000
     34 H21          5.2120    -0.0170     0.0270 ha         1 33Y       0.124000
     35 H25          1.4980    -0.0070    -2.1350 ha         1 33Y       0.140000
     36 H113         6.9660    -0.0920    -3.6400 h1         1 33Y       0.044700
     37 H213         5.4720    -0.1650    -4.5900 h1         1 33Y       0.044700
     38 H127         7.7710    -1.4030    -5.8950 hc         1 33Y       0.014200
     39 H227         6.0730    -1.5200    -6.3760 hc         1 33Y       0.014200
     40 H327         7.0400    -2.9880    -6.1810 hc         1 33Y       0.014200
     41 H128         7.6950    -2.0350    -2.5790 hc         1 33Y       0.014200
     42 H228         7.4510    -3.6440    -3.2720 hc         1 33Y       0.014200
     43 H328         8.5400    -2.4960    -4.0640 hc         1 33Y       0.014200
     44 H6           5.1860    -2.9380    -7.1430 ha         1 33Y       0.116000
     45 H1           3.5170    -4.1950    -8.4120 ha         1 33Y       0.103000
     46 H11          6.3170    -1.2640    -0.8050 h4         1 33Y       0.135000
     47 H29          5.4710    -5.4970     1.3130 h1         1 33Y       0.038700
     48 H131         4.7730    -7.8620     1.2440 hc         1 33Y       0.014033
     49 H231         4.6940    -7.7930    -0.5220 hc         1 33Y       0.014033
     50 H331         3.5710    -6.8350     0.4510 hc         1 33Y       0.014033
     51 H130         7.7070    -5.8010     0.4550 hc         1 33Y       0.014033
     52 H230         7.1550    -7.0200    -0.7020 hc         1 33Y       0.014033
     53 H330         7.1480    -7.3770     1.0310 hc         1 33Y       0.014033
     54 HN7          3.1850    -4.6950    -2.4750 hn         1 33Y       0.119700
     55 H3           1.7980    -5.6780    -4.7940 ha         1 33Y       0.100000
     56 H2           1.8300    -5.5600    -7.2470 ha         1 33Y       0.102000
@<TRIPOS>BOND
     1     1     2 1   
     2     2     3 ar  
     3     2     7 ar  
     4     3     4 1   
     5     3     5 ar  
     6     5     6 ar  
     7     5    33 1   
     8     6     8 ar  
     9     6    34 1   
    10     7     8 ar  
    11     7    35 1   
    12     8     9 1   
    13     9    10 2   
    14     9    11 1   
    15    11    12 1   
    16    11    20 1   
    17    12    13 1   
    18    12    36 1   
    19    12    37 1   
    20    13    14 1   
    21    13    15 1   
    22    13    16 1   
    23    14    38 1   
    24    14    39 1   
    25    14    40 1   
    26    15    41 1   
    27    15    42 1   
    28    15    43 1   
    29    16    17 1   
    30    16    28 2   
    31    17    18 ar  
    32    17    30 ar  
    33    18    19 ar  
    34    18    44 1   
    35    19    32 ar  
    36    19    45 1   
    37    20    21 2   
    38    20    46 1   
    39    21    22 1   
    40    21    28 1   
    41    22    23 1   
    42    22    27 2   
    43    23    24 1   
    44    24    25 1   
    45    24    26 1   
    46    24    47 1   
    47    25    48 1   
    48    25    49 1   
    49    25    50 1   
    50    26    51 1   
    51    26    52 1   
    52    26    53 1   
    53    28    29 1   
    54    29    30 1   
    55    29    54 1   
    56    30    31 ar  
    57    31    32 ar  
    58    31    55 1   
    59    32    56 1   
@<TRIPOS>SUBSTRUCTURE
     1 33Y         1 TEMP              0 ****  ****    0 ROOT
