@<TRIPOS>MOLECULE
molecule
   81    83     1     0     0
SMALL
bcc


@<TRIPOS>ATOM
      1 C49          0.0000     0.0000     0.0000 ca         1 33Z      -0.102500
      2 C50          1.3810     0.0000     0.0000 ca         1 33Z      -0.136500
      3 C51          2.0730     0.0000     1.1970 ca         1 33Z      -0.126000
      4 C52          1.3820     0.0000     2.3950 ca         1 33Z      -0.136500
      5 C53         -0.0010     0.0010     2.3940 ca         1 33Z      -0.102500
      6 C48         -0.6920    -0.0000     1.1970 ca         1 33Z      -0.089300
      7 C47         -2.1990     0.0010     1.1970 c3         1 33Z       0.214700
      8 O46         -2.6830    -1.3680     1.1960 os         1 33Z      -0.439900
      9 C44         -4.0180    -1.5440     1.1960 c          1 33Z       0.743100
     10 O45         -4.7580    -0.5800     1.1960 o          1 33Z      -0.620000
     11 N43         -4.5340    -2.7890     1.1950 ns         1 33Z      -0.546900
     12 C34         -5.9870    -2.9800     1.1950 c3         1 33Z       0.063700
     13 C35         -6.5080    -2.9220    -0.2420 c3         1 33Z      -0.054100
     14 C36         -6.2880    -1.5390    -0.8010 ca         1 33Z      -0.051300
     15 C37         -5.1110    -1.2400    -1.4610 ca         1 33Z      -0.113500
     16 C38         -4.9090     0.0270    -1.9730 ca         1 33Z      -0.128500
     17 C41         -5.8840     0.9960    -1.8250 ca         1 33Z      -0.139000
     18 C40         -7.0620     0.6970    -1.1660 ca         1 33Z      -0.128500
     19 C39         -7.2650    -0.5730    -0.6570 ca         1 33Z      -0.113500
     20 C32         -6.3170    -4.3220     1.7940 c          1 33Z       0.652100
     21 O33         -5.4260    -5.0480     2.1840 o          1 33Z      -0.636100
     22 N31         -7.6010    -4.7170     1.8980 ns         1 33Z      -0.512900
     23 C27         -7.9220    -6.0230     2.4820 c3         1 33Z      -0.058500
     24 C28         -9.0840    -5.8700     3.4650 c3         1 33Z      -0.076700
     25 C30         -9.3220    -7.1990     4.1840 c3         1 33Z      -0.092100
     26 C29         -8.7430    -4.7880     4.4920 c3         1 33Z      -0.092100
     27 P24         -8.3960    -7.1800     1.1560 p5         1 33Z       0.971400
     28 O25         -7.3500    -7.1870     0.1090 o          1 33Z      -0.774500
     29 O26         -9.7970    -6.7140     0.5120 o          1 33Z      -0.774500
     30 C23         -8.5730    -8.8580     1.8480 c3         1 33Z      -0.239600
     31 C1          -8.4400    -9.8890     0.7270 c3         1 33Z      -0.123400
     32 C2          -9.7020    -9.9010    -0.0970 c          1 33Z       0.884600
     33 O14         -9.8120   -10.7350    -1.1440 o          1 33Z      -0.807300
     34 O13        -10.6140    -9.1610     0.1840 o          1 33Z      -0.807300
     35 C3          -8.2160   -11.2550     1.3240 ca         1 33Z       0.077700
     36 C8          -7.0640   -11.9560     1.0290 ca         1 33Z      -0.120000
     37 C4          -9.1640   -11.8010     2.1700 ca         1 33Z      -0.094000
     38 C5          -8.9630   -13.0540     2.7210 ca         1 33Z      -0.104000
     39 C6          -7.8150   -13.7620     2.4270 ca         1 33Z      -0.280000
     40 C7          -6.8590   -13.2140     1.5810 ca         1 33Z       0.043600
     41 N9          -5.6930   -13.9270     1.2840 nu         1 33Z      -0.672600
     42 C10         -5.7360   -15.2980     1.1640 c2         1 33Z       0.713100
     43 N12         -4.6330   -15.9740     1.0060 n2         1 33Z      -0.854100
     44 N11         -6.9440   -15.9540     1.2070 nz         1 33Z      -0.809600
     45 H49         -0.5410    -0.0000    -0.9380 ha         1 33Z       0.135500
     46 H50          1.9230    -0.0000    -0.9380 ha         1 33Z       0.126000
     47 H51          3.1560    -0.0000     1.1970 ha         1 33Z       0.123000
     48 H52          1.9230     0.0010     3.3330 ha         1 33Z       0.126000
     49 H53         -0.5420     0.0010     3.3330 ha         1 33Z       0.135500
     50 H471        -2.5600     0.5120     0.3130 h1         1 33Z       0.054700
     51 H472        -2.5600     0.5110     2.0820 h1         1 33Z       0.054700
     52 HN43        -3.9250    -3.5830     1.2320 hn         1 33Z       0.347500
     53 H34         -6.4540    -2.1980     1.7800 h1         1 33Z       0.082700
     54 H351        -5.9770    -3.6450    -0.8490 hc         1 33Z       0.080700
     55 H352        -7.5670    -3.1510    -0.2520 hc         1 33Z       0.080700
     56 H37         -4.3470    -1.9990    -1.5770 ha         1 33Z       0.128500
     57 H38         -3.9870     0.2620    -2.4900 ha         1 33Z       0.113500
     58 H41         -5.7250     1.9900    -2.2260 ha         1 33Z       0.111000
     59 H40         -7.8270     1.4560    -1.0520 ha         1 33Z       0.113500
     60 H39         -8.1880    -0.8080    -0.1400 ha         1 33Z       0.128500
     61 HN31        -8.3350    -4.1240     1.5630 hn         1 33Z       0.320500
     62 H27         -7.0550    -6.4080     3.0040 h1         1 33Z       0.075700
     63 H28         -9.9790    -5.5860     2.9250 hc         1 33Z       0.083700
     64 H301       -10.0750    -7.7680     3.6530 hc         1 33Z       0.027033
     65 H302        -8.3970    -7.7630     4.2150 hc         1 33Z       0.027033
     66 H303        -9.6610    -7.0070     5.1950 hc         1 33Z       0.027033
     67 H291        -8.8270    -3.8120     4.0300 hc         1 33Z       0.027033
     68 H292        -7.7300    -4.9340     4.8480 hc         1 33Z       0.027033
     69 H293        -9.4320    -4.8520     5.3260 hc         1 33Z       0.027033
     70 H231        -7.8000    -9.0270     2.5880 hc         1 33Z       0.036200
     71 H232        -9.5460    -8.9550     2.3140 hc         1 33Z       0.036200
     72 H1          -7.5990    -9.6290     0.0950 hc         1 33Z       0.094700
     73 H8          -6.3210   -11.5250     0.3690 ha         1 33Z       0.160000
     74 H4         -10.0650   -11.2470     2.4020 ha         1 33Z       0.178000
     75 H5          -9.7080   -13.4800     3.3820 ha         1 33Z       0.123000
     76 H6          -7.6580   -14.7440     2.8580 ha         1 33Z       0.056000
     77 HN9         -4.8180   -13.4460     1.2080 hn         1 33Z       0.506800
     78 HN12        -4.6640   -16.9700     0.9180 hn         1 33Z       0.414400
     79 H111        -7.1680   -16.1790     2.1560 hn         1 33Z       0.468133
     80 H112        -6.8860   -16.7970     0.6700 hn         1 33Z       0.468133
     81 H113        -7.6580   -15.3650     0.8260 hn         1 33Z       0.468133
@<TRIPOS>BOND
     1     1     2 ar  
     2     1     6 ar  
     3     1    45 1   
     4     2     3 ar  
     5     2    46 1   
     6     3     4 ar  
     7     3    47 1   
     8     4     5 ar  
     9     4    48 1   
    10     5     6 ar  
    11     5    49 1   
    12     6     7 1   
    13     7     8 1   
    14     7    50 1   
    15     7    51 1   
    16     8     9 1   
    17     9    11 1   
    18     9    10 2   
    19    11    12 1   
    20    11    52 1   
    21    12    20 1   
    22    12    13 1   
    23    12    53 1   
    24    13    14 1   
    25    13    54 1   
    26    13    55 1   
    27    14    15 ar  
    28    14    19 ar  
    29    15    16 ar  
    30    15    56 1   
    31    16    17 ar  
    32    16    57 1   
    33    17    18 ar  
    34    17    58 1   
    35    18    19 ar  
    36    18    59 1   
    37    19    60 1   
    38    20    22 1   
    39    20    21 2   
    40    22    23 1   
    41    22    61 1   
    42    23    27 1   
    43    23    24 1   
    44    23    62 1   
    45    24    25 1   
    46    24    26 1   
    47    24    63 1   
    48    25    64 1   
    49    25    65 1   
    50    25    66 1   
    51    26    67 1   
    52    26    68 1   
    53    26    69 1   
    54    27    28 1   
    55    27    30 1   
    56    27    29 1   
    57    30    31 1   
    58    30    70 1   
    59    30    71 1   
    60    31    35 1   
    61    31    32 1   
    62    31    72 1   
    63    32    34 1   
    64    32    33 1   
    65    35    37 ar  
    66    35    36 ar  
    67    36    40 ar  
    68    36    73 1   
    69    37    38 ar  
    70    37    74 1   
    71    38    39 ar  
    72    38    75 1   
    73    39    40 ar  
    74    39    76 1   
    75    40    41 1   
    76    41    42 1   
    77    41    77 1   
    78    42    44 1   
    79    42    43 2   
    80    43    78 1   
    81    44    79 1   
    82    44    80 1   
    83    81    44 1   
@<TRIPOS>SUBSTRUCTURE
     1 33Z         1 TEMP              0 ****  ****    0 ROOT
