@<TRIPOS>MOLECULE
molecule
   40    42     1     0     0
SMALL
bcc


@<TRIPOS>ATOM
      1 C1           0.0000     0.0000     0.0000 cc         1 340      -0.339200
      2 C2           1.4680     0.0000     0.0000 c          1 340       0.619900
      3 C3           2.2070     0.0000     1.2730 cc         1 340      -0.175900
      4 C4           1.5070     0.0010     2.4720 cd         1 340      -0.181600
      5 C5           0.0310     0.0050     2.4570 c          1 340       0.604900
      6 C6          -0.6890     0.0010     1.1580 cd         1 340       0.073900
      7 N7           3.5390    -0.0010     1.5750 na         1 340       0.014900
      8 C8           3.6880    -0.0000     2.9230 cc         1 340      -0.080600
      9 C9           2.4630    -0.0000     3.5040 cd         1 340      -0.114300
     10 O10         -0.5900     0.0100     3.4990 o          1 340      -0.478100
     11 O11          2.0750     0.0000    -1.0550 o          1 340      -0.540100
     12 C12          4.6320     0.0000     0.6000 c3         1 340       0.024600
     13 C19          2.1790    -0.0000     4.9840 c3         1 340       0.191700
     14 O20          2.0900     1.3450     5.4520 os         1 340      -0.290900
     15 C24          1.8350     1.2820     6.7850 ca         1 340       0.123100
     16 C25          1.6940     2.4490     7.5220 ca         1 340      -0.190500
     17 C26          1.4340     2.3820     8.8770 ca         1 340      -0.092500
     18 C27          1.3130     1.1540     9.4980 ca         1 340      -0.166000
     19 C28          1.4540    -0.0110     8.7670 ca         1 340      -0.092500
     20 C29          1.7080     0.0510     7.4100 ca         1 340      -0.190500
     21 C37          5.0040    -0.0000     3.6560 c3         1 340      -0.025800
     22 O44         -2.0420     0.0010     1.1380 os         1 340      -0.256900
     23 C45         -2.4350     0.1210    -0.2310 c3         1 340       0.094700
     24 H11         -0.5350    -0.0040    -0.9420 ha         1 340       0.172000
     25 H121         4.7210    -0.9840     0.1570 h1         1 340       0.065033
     26 H122         4.4230     0.7280    -0.1750 h1         1 340       0.065033
     27 H123         5.5590     0.2580     1.0970 h1         1 340       0.065033
     28 H191         2.9790    -0.5120     5.5050 h1         1 340       0.054700
     29 H192         1.2420    -0.5100     5.1720 h1         1 340       0.054700
     30 H251         1.7880     3.4120     7.0350 ha         1 340       0.141500
     31 H261         1.3230     3.2930     9.4530 ha         1 340       0.130000
     32 H271         1.1120     1.1030    10.5610 ha         1 340       0.128000
     33 H281         1.3560    -0.9720     9.2560 ha         1 340       0.130000
     34 H291         1.8180    -0.8620     6.8370 ha         1 340       0.141500
     35 H371         5.7070    -0.6400     3.1350 hc         1 340       0.054033
     36 H372         4.8570    -0.3710     4.6630 hc         1 340       0.054033
     37 H373         5.3960     1.0090     3.6960 hc         1 340       0.054033
     38 H451        -3.5140     0.1960    -0.2920 h1         1 340       0.053033
     39 H452        -2.1010    -0.7510    -0.7800 h1         1 340       0.053033
     40 H453        -1.9870     1.0100    -0.6580 h1         1 340       0.053033
@<TRIPOS>BOND
     1     1     2 1
     2     1     6 2
     3     1    24 1
     4     2     3 1
     5     2    11 2
     6     3     4 2
     7     3     7 1
     8     4     5 1
     9     4     9 1
    10     5     6 1
    11     5    10 2
    12     6    22 1
    13     7     8 1
    14     7    12 1
    15     8     9 2
    16     8    21 1
    17     9    13 1
    18    12    25 1
    19    12    26 1
    20    12    27 1
    21    13    14 1
    22    13    28 1
    23    13    29 1
    24    14    15 1
    25    15    16 ar
    26    15    20 ar
    27    16    17 ar
    28    16    30 1
    29    17    18 ar
    30    17    31 1
    31    18    19 ar
    32    18    32 1
    33    19    20 ar
    34    19    33 1
    35    20    34 1
    36    21    35 1
    37    21    36 1
    38    21    37 1
    39    22    23 1
    40    23    38 1
    41    23    39 1
    42    23    40 1
@<TRIPOS>SUBSTRUCTURE
     1 340         1 TEMP              0 ****  ****    0 ROOT
