@<TRIPOS>MOLECULE
340
   40    42     1     0     0
SMALL
bcc


@<TRIPOS>ATOM
      1 C1          0.1360   -0.0150   -0.2150 cc        1 340     -0.329200
      2 C2          1.5950    0.1320   -0.1770 c         1 340      0.620900
      3 C3          2.1640    0.1190    1.1760 cc        1 340     -0.160900
      4 C4          1.3750   -0.0410    2.3450 cd        1 340     -0.196600
      5 C5         -0.0640   -0.2150    2.2940 c         1 340      0.610900
      6 C6         -0.6200   -0.1670    0.8950 cd        1 340      0.090900
      7 N7          3.4910    0.2630    1.5580 na        1 340      0.002900
      8 C8          3.5650    0.1930    2.9550 cc        1 340     -0.069600
      9 C9          2.2600    0.0060    3.4670 cd        1 340     -0.098300
     10 O10        -0.7920   -0.3950    3.2730 o         1 340     -0.490100
     11 O11         2.2750    0.2570   -1.2050 o         1 340     -0.545100
     12 C12         4.6210    0.4360    0.6970 c3        1 340     -0.001400
     13 C19         1.8540   -0.1560    4.8770 c3        1 340      0.191700
     14 O20         2.5580    0.8250    5.6590 os        1 340     -0.336900
     15 C24         2.1570    0.9310    6.9780 ca        1 340      0.126100
     16 C25         2.7300    2.0110    7.6780 ca        1 340     -0.179500
     17 C26         2.4140    2.1920    9.0190 ca        1 340     -0.098000
     18 C27         1.5360    1.3180    9.6650 ca        1 340     -0.165000
     19 C28         0.9720    0.2550    8.9630 ca        1 340     -0.098000
     20 C29         1.2770    0.0500    7.6170 ca        1 340     -0.179500
     21 C37         4.8300    0.3110    3.7040 c3        1 340     -0.040800
     22 O44        -1.9820   -0.3030    0.9090 os        1 340     -0.291900
     23 C45        -2.6430   -0.2730   -0.3550 c3        1 340      0.103700
     24 H11        -0.3020    0.0090   -1.2250 ha        1 340      0.162000
     25 H121        5.2500    1.2860    1.0770 h1        1 340      0.071700
     26 H122        4.2780    0.6560   -0.3500 h1        1 340      0.071700
     27 H123        5.2410   -0.5020    0.6960 h1        1 340      0.071700
     28 H191        2.1380   -1.1790    5.2510 h1        1 340      0.064700
     29 H192        0.7440   -0.0050    4.9830 h1        1 340      0.064700
     30 H251        3.4150    2.6920    7.1550 ha        1 340      0.143500
     31 H261        2.8570    3.0330    9.5730 ha        1 340      0.132000
     32 H271        1.2900    1.4710   10.7250 ha        1 340      0.132000
     33 H281        0.2790   -0.4330    9.4700 ha        1 340      0.132000
     34 H291        0.8220   -0.7920    7.0780 ha        1 340      0.143500
     35 H371        5.5630   -0.4690    3.3760 hc        1 340      0.060700
     36 H372        4.6220    0.1840    4.7960 hc        1 340      0.060700
     37 H373        5.2900    1.3190    3.5450 hc        1 340      0.060700
     38 H451       -3.7210   -0.3950   -0.0820 h1        1 340      0.053700
     39 H452       -2.2960   -1.1180   -0.9980 h1        1 340      0.053700
     40 H453       -2.4690    0.7060   -0.8640 h1        1 340      0.053700
@<TRIPOS>BOND
     1    1    2 1   
     2    1    6 2   
     3    1   24 1   
     4    2    3 1   
     5    2   11 2   
     6    3    4 2   
     7    3    7 1   
     8    4    5 1   
     9    4    9 1   
    10    5    6 1   
    11    5   10 2   
    12    6   22 1   
    13    7    8 1   
    14    7   12 1   
    15    8    9 2   
    16    8   21 1   
    17    9   13 1   
    18   12   25 1   
    19   12   26 1   
    20   12   27 1   
    21   13   14 1   
    22   13   28 1   
    23   13   29 1   
    24   14   15 1   
    25   15   16 ar  
    26   15   20 ar  
    27   16   17 ar  
    28   16   30 1   
    29   17   18 ar  
    30   17   31 1   
    31   18   19 ar  
    32   18   32 1   
    33   19   20 ar  
    34   19   33 1   
    35   20   34 1   
    36   21   35 1   
    37   21   36 1   
    38   21   37 1   
    39   22   23 1   
    40   23   38 1   
    41   23   39 1   
    42   23   40 1   
@<TRIPOS>SUBSTRUCTURE
     1 340         1 TEMP              0 ****  ****    0 ROOT
