@<TRIPOS>MOLECULE
341
   16    16     1     0     0
SMALL
bcc


@<TRIPOS>ATOM
      1 C3         -0.0080    0.0020   -0.0090 ca        1 341      0.149900
      2 C4          1.3990    0.0130   -0.0150 ca        1 341     -0.162000
      3 C5          2.0900    0.0130    1.1970 ca        1 341     -0.035300
      4 C6          1.4000    0.0100    2.4100 ca        1 341     -0.162000
      5 C1         -0.0060   -0.0020    2.4060 ca        1 341      0.149900
      6 C2         -0.7240   -0.0080    1.1990 ca        1 341     -0.201000
      7 F8         -0.6800   -0.0080    3.5820 f         1 341     -0.134900
      8 C9          3.5880    0.0010    1.1960 c3        1 341      0.173700
      9 O10         4.0380    1.3490    1.1950 oh        1 341     -0.589800
     10 F7         -0.6830   -0.0010   -1.1830 f         1 341     -0.134900
     11 H4          1.9400    0.0310   -0.9720 ha        1 341      0.156000
     12 H6          1.9430    0.0250    3.3660 ha        1 341      0.156000
     13 H2         -1.8230   -0.0170    1.2000 ha        1 341      0.166000
     14 H9          3.9740   -0.5270    2.1110 h1        1 341      0.032700
     15 H9A         3.9720   -0.5280    0.2810 h1        1 341      0.032700
     16 HO10        5.0020    1.3120    1.1940 ho        1 341      0.403000
@<TRIPOS>BOND
     1    1    2 ar  
     2    1    6 ar  
     3    1   10 1   
     4    2    3 ar  
     5    2   11 1   
     6    3    4 ar  
     7    3    8 1   
     8    4    5 ar  
     9    4   12 1   
    10    5    6 ar  
    11    5    7 1   
    12    6   13 1   
    13    8    9 1   
    14    8   14 1   
    15    8   15 1   
    16    9   16 1   
@<TRIPOS>SUBSTRUCTURE
     1 341         1 TEMP              0 ****  ****    0 ROOT
