@<TRIPOS>MOLECULE
molecule
   16    16     1     0     0
SMALL
bcc


@<TRIPOS>ATOM
      1 C3           0.0000     0.0000     0.0000 ca         1 341       0.157900
      2 C4           1.3840     0.0000     0.0000 ca         1 341      -0.163500
      3 C5           2.0760     0.0000     1.1970 ca         1 341      -0.035300
      4 C6           1.3860    -0.0020     2.3950 ca         1 341      -0.163500
      5 C1           0.0020    -0.0030     2.3970 ca         1 341       0.157900
      6 C2          -0.6920    -0.0020     1.1990 ca         1 341      -0.205000
      7 F8          -0.6710    -0.0040     3.5680 f          1 341      -0.133900
      8 C9           3.5830    -0.0000     1.1960 c3         1 341       0.188700
      9 O10          4.0590     1.3470     1.1960 oh         1 341      -0.600800
     10 F7          -0.6760     0.0050    -1.1700 f          1 341      -0.133900
     11 H4           1.9260     0.0010    -0.9380 ha         1 341       0.152000
     12 H6           1.9290    -0.0020     3.3320 ha         1 341       0.152000
     13 H2          -1.7750    -0.0020     1.2000 ha         1 341       0.160000
     14 H9           3.9430    -0.5110     0.3110 h1         1 341       0.030700
     15 H9A          3.9450    -0.5110     2.0800 h1         1 341       0.030700
     16 HO10         5.0020     1.3470     1.1950 ho         1 341       0.406000
@<TRIPOS>BOND
     1     1     2 ar
     2     1     6 ar
     3     1    10 1
     4     2     3 ar
     5     3     4 ar
     6     3     8 1
     7     4     5 ar
     8     5     6 ar
     9     5     7 1
    10     8     9 1
    11     2    11 1
    12     4    12 1
    13     6    13 1
    14     8    14 1
    15     8    15 1
    16     9    16 1
@<TRIPOS>SUBSTRUCTURE
     1 341         1 TEMP              0 ****  ****    0 ROOT
