@<TRIPOS>MOLECULE
molecule
   80    82     1     0     0
SMALL
bcc


@<TRIPOS>ATOM
      1 C49          0.0000     0.0000     0.0000 ca         1 343      -0.102000
      2 C50          1.3830     0.0000     0.0000 ca         1 343      -0.137000
      3 C51          2.0740     0.0000     1.1970 ca         1 343      -0.125000
      4 C52          1.3830     0.0030     2.3940 ca         1 343      -0.137000
      5 C53          0.0010     0.0040     2.3950 ca         1 343      -0.102000
      6 C48         -0.6910     0.0020     1.1980 ca         1 343      -0.089300
      7 C47         -2.1970     0.0030     1.1970 c3         1 343       0.213700
      8 O46         -2.6830    -1.3660     1.1980 os         1 343      -0.439900
      9 C44         -4.0170    -1.5410     1.1990 c          1 343       0.742100
     10 O45         -4.7570    -0.5760     1.1990 o          1 343      -0.618000
     11 N43         -4.5340    -2.7860     1.2010 ns         1 343      -0.547900
     12 C34         -5.9860    -2.9760     1.2010 c3         1 343       0.063700
     13 C35         -6.5080    -2.9190    -0.2360 c3         1 343      -0.054100
     14 C36         -6.2880    -1.5380    -0.7960 ca         1 343      -0.058300
     15 C37         -5.1100    -1.2410    -1.4570 ca         1 343      -0.103000
     16 C38         -4.9060     0.0250    -1.9710 ca         1 343      -0.149500
     17 C41         -5.8830     0.9990    -1.8240 ca         1 343       0.088100
     18 O42         -5.6840     2.2440    -2.3290 oh         1 343      -0.530100
     19 C40         -7.0640     0.6980    -1.1610 ca         1 343      -0.149500
     20 C39         -7.2660    -0.5710    -0.6530 ca         1 343      -0.103000
     21 C32         -6.3170    -4.3180     1.8020 c          1 343       0.651100
     22 O33         -5.4260    -5.0440     2.1920 o          1 343      -0.633100
     23 N31         -7.6010    -4.7120     1.9070 ns         1 343      -0.514900
     24 C27         -7.9220    -6.0160     2.4920 c3         1 343      -0.049500
     25 C28         -9.0840    -5.8620     3.4760 c3         1 343      -0.076700
     26 C30         -9.4110    -7.2210     4.0960 c3         1 343      -0.092600
     27 C29         -8.6890    -4.8790     4.5800 c3         1 343      -0.092600
     28 P24         -8.3980    -7.1750     1.1670 p5         1 343       1.169600
     29 O25         -7.3240    -7.2300     0.1500 o          1 343      -0.809500
     30 O26         -9.7640    -6.6720     0.4790 o          1 343      -0.809500
     31 O23         -8.6210    -8.6420     1.7930 os         1 343      -0.586200
     32 C1          -8.8990    -9.7940     0.9940 c3         1 343       0.154400
     33 C2         -10.2300   -10.3750     1.3980 c          1 343       0.891600
     34 O14        -10.8730    -9.8560     2.2790 o          1 343      -0.827800
     35 O13        -10.7000   -11.4690     0.7790 o          1 343      -0.827800
     36 C3          -7.8170   -10.8230     1.2020 ca         1 343       0.042700
     37 C8          -7.3390   -11.5480     0.1290 ca         1 343      -0.088000
     38 C4          -7.3020   -11.0370     2.4680 ca         1 343      -0.076000
     39 C5          -6.3090   -11.9800     2.6630 ca         1 343      -0.112000
     40 C6          -5.8300   -12.7110     1.5940 ca         1 343      -0.259000
     41 C7          -6.3420   -12.4960     0.3220 ca         1 343       0.035600
     42 N9          -5.8560   -13.2310    -0.7640 nu         1 343      -0.670600
     43 C10         -5.5460   -14.5640    -0.6090 c2         1 343       0.713100
     44 N12         -4.9890   -15.2220    -1.5860 n2         1 343      -0.853100
     45 N11         -5.8240   -15.2010     0.5780 nz         1 343      -0.808600
     46 H49         -0.5420    -0.0010    -0.9380 ha         1 343       0.136000
     47 H50          1.9240    -0.0020    -0.9380 ha         1 343       0.126000
     48 H51          3.1570    -0.0000     1.1970 ha         1 343       0.122000
     49 H52          1.9250     0.0030     3.3320 ha         1 343       0.126000
     50 H53         -0.5400     0.0060     3.3330 ha         1 343       0.136000
     51 H471        -2.5570     0.5140     0.3120 h1         1 343       0.057200
     52 H472        -2.5580     0.5150     2.0810 h1         1 343       0.057200
     53 HN43        -3.9250    -3.5800     1.2380 hn         1 343       0.347500
     54 H34         -6.4530    -2.1930     1.7860 h1         1 343       0.084700
     55 H351        -7.5670    -3.1470    -0.2450 hc         1 343       0.078200
     56 H352        -5.9780    -3.6430    -0.8420 hc         1 343       0.078200
     57 H37         -4.3480    -2.0020    -1.5720 ha         1 343       0.133000
     58 H38         -3.9830     0.2570    -2.4890 ha         1 343       0.125500
     59 HO42        -6.0980     2.3100    -3.1740 ho         1 343       0.406000
     60 H40         -7.8300     1.4560    -1.0460 ha         1 343       0.125500
     61 H39         -8.1880    -0.8060    -0.1350 ha         1 343       0.133000
     62 HN31        -8.3350    -4.1210     1.5680 hn         1 343       0.320500
     63 H27         -7.0550    -6.4010     3.0140 h1         1 343       0.081700
     64 H28         -9.9540    -5.4850     2.9520 hc         1 343       0.073700
     65 H301        -8.5100    -7.8190     4.1530 hc         1 343       0.033033
     66 H302       -10.1440    -7.7310     3.4820 hc         1 343       0.033033
     67 H303        -9.8120    -7.0770     5.0920 hc         1 343       0.033033
     68 H291        -8.6800    -3.8720     4.1810 hc         1 343       0.033033
     69 H292        -7.7020    -5.1300     4.9500 hc         1 343       0.033033
     70 H293        -9.4050    -4.9400     5.3910 hc         1 343       0.033033
     71 H1          -8.9310    -9.5100    -0.0510 h1         1 343       0.070700
     72 H8          -7.7410   -11.3770    -0.8620 ha         1 343       0.164000
     73 H4          -7.6760   -10.4650     3.3080 ha         1 343       0.180000
     74 H5          -5.9090   -12.1460     3.6560 ha         1 343       0.124000
     75 H6          -5.0520   -13.4500     1.7480 ha         1 343       0.061000
     76 HN9         -5.6990   -12.7800    -1.6430 hn         1 343       0.508800
     77 HN12        -4.7640   -16.1900    -1.4740 hn         1 343       0.414400
     78 H111        -6.6570   -14.8150     0.9770 hn         1 343       0.467467
     79 H112        -5.9570   -16.1780     0.4090 hn         1 343       0.467467
     80 H113        -5.0600   -15.0740     1.2120 hn         1 343       0.467467
@<TRIPOS>BOND
     1     1     2 ar
     2     1     6 ar
     3     1    46 1
     4     2     3 ar
     5     2    47 1
     6     3     4 ar
     7     3    48 1
     8     4     5 ar
     9     4    49 1
    10     5     6 ar
    11     5    50 1
    12     6     7 1
    13     7     8 1
    14     7    51 1
    15     7    52 1
    16     8     9 1
    17     9    11 1
    18     9    10 2
    19    11    12 1
    20    11    53 1
    21    12    21 1
    22    12    13 1
    23    12    54 1
    24    13    14 1
    25    13    55 1
    26    13    56 1
    27    14    15 ar
    28    14    20 ar
    29    15    16 ar
    30    15    57 1
    31    16    17 ar
    32    16    58 1
    33    17    19 ar
    34    17    18 1
    35    18    59 1
    36    19    20 ar
    37    19    60 1
    38    20    61 1
    39    21    23 1
    40    21    22 2
    41    23    24 1
    42    23    62 1
    43    24    25 1
    44    24    28 1
    45    24    63 1
    46    25    26 1
    47    25    27 1
    48    25    64 1
    49    26    65 1
    50    26    66 1
    51    26    67 1
    52    27    68 1
    53    27    69 1
    54    27    70 1
    55    28    29 1
    56    28    31 1
    57    28    30 1
    58    31    32 1
    59    32    36 1
    60    32    33 1
    61    32    71 1
    62    33    34 1
    63    33    35 1
    64    36    38 ar
    65    36    37 ar
    66    37    41 ar
    67    37    72 1
    68    38    39 ar
    69    38    73 1
    70    39    40 ar
    71    39    74 1
    72    40    41 ar
    73    40    75 1
    74    41    42 1
    75    42    43 1
    76    42    76 1
    77    43    45 1
    78    43    44 2
    79    44    77 1
    80    45    78 1
    81    45    79 1
    82    80    45 1
@<TRIPOS>SUBSTRUCTURE
     1 343         1 TEMP              0 ****  ****    0 ROOT
