@<TRIPOS>MOLECULE
344
   22    24     1     0     0
SMALL
bcc


@<TRIPOS>ATOM
      1 N4         -0.0400    0.0530   -0.0920 nc        1 344     -0.551100
      2 C9          1.2950   -0.0170   -0.0310 cd        1 344      0.423700
      3 N5          1.7960   -0.0790    1.2880 na        1 344     -0.301300
      4 C1          0.6850   -0.0470    2.1350 ca        1 344     -0.024200
      5 C2          0.5680   -0.0810    3.5200 ca        1 344     -0.154000
      6 C3         -0.7320   -0.0300    4.0670 ca        1 344      0.226400
      7 N3         -0.8700   -0.0530    5.4560 nc        1 344     -0.685100
      8 C8         -2.1020   -0.0360    5.9790 cd        1 344      0.668800
      9 N2         -2.2670   -0.1920    7.3790 nh        1 344     -0.886800
     10 N1         -3.2790    0.0750    5.2050 n         1 344     -0.509400
     11 C7         -3.2110    0.0970    3.8010 c         1 344      0.722100
     12 O1         -4.2800    0.1600    3.1680 o         1 344     -0.621500
     13 C4         -1.8680    0.0520    3.1990 ca        1 344     -0.225600
     14 C5         -1.7520    0.0840    1.8080 ca        1 344      0.016000
     15 C6         -0.4770    0.0360    1.2540 ca        1 344      0.030400
     16 H9          1.9680   -0.0270   -0.8970 h5        1 344      0.070800
     17 HN5         2.7380   -0.1410    1.5640 hn        1 344      0.308700
     18 H2          1.4500   -0.1460    4.1710 ha        1 344      0.155000
     19 HN21       -1.4100   -0.1780    7.8920 hn        1 344      0.413800
     20 HN22       -2.9770    0.3800    7.7810 hn        1 344      0.413800
     21 HN1        -4.1770    0.0330    5.6320 hn        1 344      0.335500
     22 H5         -2.6540    0.1470    1.1770 ha        1 344      0.174000
@<TRIPOS>BOND
     1    1    2 2
     2    1   15 1
     3    2    3 1
     4    2   16 1
     5    3    4 1
     6    3   17 1
     7    4    5 ar
     8    4   15 ar
     9    5    6 ar
    10    5   18 1
    11    6    7 1
    12    6   13 ar
    13    7    8 2
    14    8    9 1
    15    8   10 1
    16    9   19 1
    17    9   20 1
    18   10   11 1
    19   10   21 1
    20   11   12 2
    21   11   13 1
    22   13   14 ar
    23   14   15 ar
    24   14   22 1
@<TRIPOS>SUBSTRUCTURE
     1 344         1 TEMP              0 ****  ****    0 ROOT
