@<TRIPOS>MOLECULE
345
   48    50     1     0     0
SMALL
bcc


@<TRIPOS>ATOM
      1 C1           0.0000     0.0000     0.0000 ca         1 345       0.132100
      2 C2           1.3870     0.0000     0.0000 ca         1 345      -0.165500
      3 C3           2.0760     0.0000     1.1970 ca         1 345      -0.058000
      4 C4           1.3840    -0.0010     2.3950 ca         1 345      -0.069600
      5 C5           0.0010    -0.0020     2.3970 ca         1 345      -0.058000
      6 C6          -0.6920     0.0050     1.2030 ca         1 345      -0.165500
      7 O11         -0.6800     0.0010    -1.1760 os         1 345      -0.198200
      8 C12          0.2430    -0.1290    -2.1640 ca         1 345       0.141100
      9 C13          0.7460     0.9980    -2.7970 ca         1 345      -0.156000
     10 C14          1.6840     0.8630    -3.8010 ca         1 345       0.009500
     11 C15          2.1230    -0.3920    -4.1760 ca         1 345      -0.167500
     12 C16          1.6200    -1.5180    -3.5500 ca         1 345       0.009500
     13 C17          0.6850    -1.3880    -2.5430 ca         1 345      -0.156000
     14 S22          3.3200    -0.5600    -5.4570 sy         1 345       0.881300
     15 O23          3.1180     0.6120    -6.2330 o          1 345      -0.559300
     16 O24          3.0540    -1.8590    -5.9680 o          1 345      -0.559300
     17 C25          4.8950    -0.5040    -4.5610 c3         1 345       0.003800
     18 C26          6.0570    -0.5180    -5.5610 c3         1 345      -0.066400
     19 C27          7.3760    -0.6310    -4.7920 c3         1 345       0.201900
     20 O28          7.4000    -1.8510    -4.0530 os         1 345      -0.387600
     21 C29          6.4140    -1.7530    -3.0280 c3         1 345       0.201900
     22 C30          5.0170    -1.7320    -3.6510 c3         1 345      -0.066400
     23 C39          4.9610     0.7690    -3.7160 c3         1 345      -0.094400
     24 C40          4.9190     1.9740    -4.6200 c          1 345       0.539100
     25 N43          4.8350     3.2100    -4.0910 ns         1 345      -0.057400
     26 O44          4.9610     1.8300    -5.8230 o          1 345      -0.557100
     27 O45          4.7960     4.3430    -4.9390 oh         1 345      -0.429100
     28 Cl4          2.2530    -0.0010     3.8980 cl         1 345      -0.024400
     29 H2           1.9290    -0.0010    -0.9380 ha         1 345       0.128500
     30 H3           3.1590     0.0000     1.1970 ha         1 345       0.113500
     31 H5          -0.5380    -0.0010     3.3370 ha         1 345       0.113500
     32 H6          -1.7760     0.0050     1.2050 ha         1 345       0.128500
     33 H13          0.4030     1.9830    -2.5040 ha         1 345       0.124000
     34 H14          2.0790     1.7440    -4.2940 ha         1 345       0.130500
     35 H16          1.9640    -2.5020    -3.8450 ha         1 345       0.130500
     36 H17          0.2910    -2.2700    -2.0520 ha         1 345       0.124000
     37 H261         5.9520    -1.3680    -6.2250 hc         1 345       0.054950
     38 H262         6.0510     0.4000    -6.1350 hc         1 345       0.054950
     39 H271         8.2020    -0.6200    -5.4930 h1         1 345       0.009200
     40 H272         7.4660     0.2040    -4.1090 h1         1 345       0.009200
     41 H291         6.5710    -0.8400    -2.4660 h1         1 345       0.009200
     42 H292         6.4990    -2.6070    -2.3670 h1         1 345       0.009200
     43 H301         4.2720    -1.6760    -2.8670 hc         1 345       0.054950
     44 H302         4.8690    -2.6310    -4.2360 hc         1 345       0.054950
     45 H391         4.1170     0.7970    -3.0380 hc         1 345       0.042700
     46 H392         5.8820     0.7770    -3.1470 hc         1 345       0.042700
     47 HN           4.8010     3.3280    -3.0970 hn         1 345       0.152500
     48 HO           5.1060     5.0990    -4.4690 ho         1 345       0.390000
@<TRIPOS>BOND
     1     1     2 ar  
     2     1     6 ar  
     3     1     7 1   
     4     2     3 ar  
     5     2    29 1   
     6     3     4 ar  
     7     3    30 1   
     8     4     5 ar  
     9     4    28 1   
    10     5     6 ar  
    11     5    31 1   
    12     6    32 1   
    13     7     8 1   
    14     8     9 ar  
    15     8    13 ar  
    16     9    10 ar  
    17     9    33 1   
    18    10    11 ar  
    19    10    34 1   
    20    11    12 ar  
    21    11    14 1   
    22    12    13 ar  
    23    12    35 1   
    24    13    36 1   
    25    14    15 2   
    26    14    16 2   
    27    14    17 1   
    28    17    18 1   
    29    17    22 1   
    30    17    23 1   
    31    18    19 1   
    32    18    37 1   
    33    18    38 1   
    34    19    20 1   
    35    19    39 1   
    36    19    40 1   
    37    20    21 1   
    38    21    22 1   
    39    21    41 1   
    40    21    42 1   
    41    22    43 1   
    42    22    44 1   
    43    23    24 1   
    44    23    45 1   
    45    23    46 1   
    46    24    25 1   
    47    24    26 2   
    48    25    27 1   
    49    25    47 1   
    50    27    48 1   
@<TRIPOS>SUBSTRUCTURE
     1 345         1 TEMP              0 ****  ****    0 ROOT
