@<TRIPOS>MOLECULE
molecule
   54    56     1     0     0
SMALL
bcc


@<TRIPOS>ATOM
      1 F30          0.0000     0.0000     0.0000 f          1 346      -0.113900
      2 C12          1.3510     0.0000     0.0000 ca         1 346       0.113900
      3 C13          2.0460     0.0000     1.2040 ca         1 346       0.115100
      4 O25          1.3660     0.0010     2.3810 os         1 346      -0.264900
      5 C26          2.3370    -0.1490     3.4190 c3         1 346       0.082100
      6 C27          1.6800    -0.7130     4.6980 c3         1 346      -0.114400
      7 C29          1.9060     0.3910     5.7550 c3         1 346       0.120400
      8 O28          2.0730     1.6040     4.9900 os         1 346      -0.402600
      9 C31          2.8840     1.2290     3.8510 c3         1 346       0.098400
     10 C8           3.4310    -0.0010     1.2020 ca         1 346      -0.314000
     11 C9           4.1220    -0.0010     0.0000 ca         1 346       0.142100
     12 O23          5.4810    -0.0020    -0.0030 os         1 346      -0.297900
     13 C24          5.8970    -0.0010     1.3640 c3         1 346       0.115400
     14 C30          7.4250    -0.0020     1.4310 c3         1 346      -0.098100
     15 C10          3.4250     0.0040    -1.1990 ca         1 346      -0.177000
     16 C11          2.0420    -0.0000    -1.1970 ca         1 346      -0.025300
     17 C14          1.2880    -0.0010    -2.5020 c3         1 346       0.146800
     18 C15          0.9410    -1.4170    -2.8820 c          1 346       0.872600
     19 O2           0.1780    -2.1620    -2.0660 o          1 346      -0.798800
     20 O1           1.3480    -1.8820    -3.9200 o          1 346      -0.798800
     21 N3           2.1230     0.5950    -3.5480 nu         1 346      -0.711600
     22 C1           1.5280     1.2180    -4.6430 ca         1 346       0.284600
     23 C2           2.3220     1.7820    -5.6360 ca         1 346      -0.203000
     24 C3           1.7370     2.3990    -6.7190 ca         1 346      -0.035000
     25 C4           0.3460     2.4590    -6.8200 ca         1 346      -0.310900
     26 C7          -0.2850     3.1210    -7.9810 ce         1 346       0.566800
     27 N1          -1.6590     3.1780    -8.0800 nz         1 346      -0.798600
     28 N2           0.4580     3.6520    -8.9130 n2         1 346      -0.757100
     29 C5          -0.4480     1.8910    -5.8210 ca         1 346      -0.035000
     30 C6           0.1410     1.2700    -4.7440 ca         1 346      -0.203000
     31 H26          3.1470    -0.7920     3.0980 h1         1 346       0.071700
     32 H272         0.6200    -0.8740     4.5400 hc         1 346       0.069200
     33 H271         2.1690    -1.6310     5.0010 hc         1 346       0.069200
     34 H292         1.0430     0.4720     6.4040 h1         1 346       0.049700
     35 H291         2.8000     0.1840     6.3300 h1         1 346       0.049700
     36 H312         3.9250     1.1460     4.1410 h1         1 346       0.058200
     37 H311         2.7650     1.9490     3.0510 h1         1 346       0.058200
     38 H8           3.9750    -0.0010     2.1400 ha         1 346       0.153000
     39 H241         5.5140     0.8840     1.8580 h1         1 346       0.038200
     40 H242         5.5140    -0.8850     1.8590 h1         1 346       0.038200
     41 H303         7.7460    -0.4720     2.3530 hc         1 346       0.046033
     42 H302         7.8240    -0.5520     0.5880 hc         1 346       0.046033
     43 H301         7.7890     1.0180     1.4010 hc         1 346       0.046033
     44 H10          3.9650     0.0040    -2.1380 ha         1 346       0.139000
     45 H14          0.3780     0.5780    -2.3930 h1         1 346       0.076700
     46 H33          3.1200     0.5210    -3.4950 hn         1 346       0.454800
     47 H2           3.4020     1.7360    -5.5570 ha         1 346       0.162500
     48 H3           2.3560     2.8390    -7.4920 ha         1 346       0.120000
     49 H12         -2.0300     2.2490    -8.1180 hn         1 346       0.455133
     50 H11         -1.9140     3.6740    -8.9110 hn         1 346       0.455133
     51 H21          0.0310     4.1000    -9.6990 hn         1 346       0.405400
     52 H5          -1.5280     1.9330    -5.8980 ha         1 346       0.120000
     53 H6          -0.4740     0.8300    -3.9690 ha         1 346       0.162500
     54 H13         -2.0310     3.6530    -7.2810 hn         1 346       0.455133
@<TRIPOS>BOND
     1     1     2 1   
     2     2     3 ar  
     3     2    16 ar  
     4     3     4 1   
     5     3    10 ar  
     6     4     5 1   
     7     5     6 1   
     8     5     9 1   
     9     5    31 1   
    10     6     7 1   
    11     6    32 1   
    12     6    33 1   
    13     7     8 1   
    14     7    34 1   
    15     7    35 1   
    16     8     9 1   
    17     9    36 1   
    18     9    37 1   
    19    10    11 ar  
    20    10    38 1   
    21    11    12 1   
    22    11    15 ar  
    23    12    13 1   
    24    13    14 1   
    25    13    39 1   
    26    13    40 1   
    27    14    41 1   
    28    14    42 1   
    29    14    43 1   
    30    15    16 ar  
    31    15    44 1   
    32    16    17 1   
    33    17    18 1   
    34    17    21 1   
    35    17    45 1   
    36    18    19 1   
    37    18    20 1   
    38    21    22 1   
    39    21    46 1   
    40    22    23 ar  
    41    22    30 ar  
    42    23    24 ar  
    43    23    47 1   
    44    24    25 ar  
    45    24    48 1   
    46    25    26 1   
    47    25    29 ar  
    48    26    27 1   
    49    26    28 2   
    50    27    49 1   
    51    27    50 1   
    52    28    51 1   
    53    29    30 ar  
    54    29    52 1   
    55    30    53 1   
    56    54    27 1   
@<TRIPOS>SUBSTRUCTURE
     1 346         1 TEMP              0 ****  ****    0 ROOT
