@<TRIPOS>MOLECULE
346
   54    56     1     0     0
SMALL
bcc


@<TRIPOS>ATOM
      1 F30          0.0000     0.0000     0.0000 f          1 346      -0.108900
      2 C12          1.3510     0.0000     0.0000 ca         1 346       0.084900
      3 C13          2.0460     0.0000     1.2040 ca         1 346       0.147100
      4 O25          1.3660     0.0010     2.3810 os         1 346      -0.243900
      5 C26          2.3370    -0.1490     3.4190 c3         1 346       0.099100
      6 C27          1.6800    -0.7130     4.6980 c3         1 346      -0.063400
      7 C29          1.9060     0.3910     5.7550 c3         1 346       0.205400
      8 O28          2.0730     1.6040     4.9900 os         1 346      -0.394600
      9 C31          2.8840     1.2290     3.8510 c3         1 346       0.172400
     10 C8           3.4310    -0.0010     1.2020 ca         1 346      -0.345000
     11 C9           4.1220    -0.0010     0.0000 ca         1 346       0.171100
     12 O23          5.4810    -0.0020    -0.0030 os         1 346      -0.281900
     13 C24          5.8970    -0.0010     1.3640 c3         1 346       0.176400
     14 C30          7.4250    -0.0020     1.4310 c3         1 346      -0.004100
     15 C10          3.4250     0.0040    -1.1990 ca         1 346      -0.183000
     16 C11          2.0420    -0.0000    -1.1970 ca         1 346      -0.009300
     17 C14          1.2880    -0.0010    -2.5020 c3         1 346       0.029800
     18 C15          0.9410    -1.4170    -2.8820 c          1 346       0.957600
     19 O2           0.1780    -2.1620    -2.0660 o          1 346      -0.848800
     20 O1           1.3480    -1.8820    -3.9200 o          1 346      -0.848800
     21 N3           2.1230     0.5950    -3.5480 nu         1 346      -0.248600
     22 C1           1.5280     1.2180    -4.6430 ca         1 346       0.124600
     23 C2           2.3220     1.7820    -5.6360 ca         1 346      -0.177000
     24 C3           1.7370     2.3990    -6.7190 ca         1 346      -0.011500
     25 C4           0.3460     2.4590    -6.8200 ca         1 346      -0.366900
     26 C7          -0.2850     3.1210    -7.9810 ce         1 346       0.259800
     27 N1          -1.6590     3.1780    -8.0800 nz         1 346       0.190400
     28 N2           0.4580     3.6520    -8.9130 n2         1 346      -0.616100
     29 C5          -0.4480     1.8910    -5.8210 ca         1 346      -0.011500
     30 C6           0.1410     1.2700    -4.7440 ca         1 346      -0.177000
     31 H26          3.1470    -0.7920     3.0980 h1         1 346       0.048700
     32 H272         2.1690    -1.6310     5.0010 hc         1 346       0.036200
     33 H271         0.6200    -0.8740     4.5400 hc         1 346       0.036200
     34 H292         2.8000     0.1840     6.3300 h1         1 346       0.008200
     35 H291         1.0430     0.4720     6.4040 h1         1 346       0.008200
     36 H312         2.7650     1.9490     3.0510 h1         1 346       0.018200
     37 H311         3.9250     1.1460     4.1410 h1         1 346       0.018200
     38 H8           3.9750    -0.0010     2.1400 ha         1 346       0.165000
     39 H241         5.5140    -0.8850     1.8590 h1         1 346       0.007200
     40 H242         5.5140     0.8840     1.8580 h1         1 346       0.007200
     41 H303         7.8070     0.9040     0.9760 hc         1 346       0.010367
     42 H302         7.8100    -0.8630     0.8990 hc         1 346       0.010367
     43 H301         7.7410    -0.0470     2.4660 hc         1 346       0.010367
     44 H10          3.9650     0.0040    -2.1380 ha         1 346       0.120000
     45 H14          0.3780     0.5780    -2.3930 h1         1 346       0.059700
     46 H33          3.1200     0.5190    -3.4960 hn         1 346       0.300800
     47 H2           3.4020     1.7360    -5.5570 ha         1 346       0.138500
     48 H3           2.3560     2.8390    -7.4920 ha         1 346       0.079500
     49 H12         -1.9140     3.6580    -8.9200 hn         1 346       0.214133
     50 H11         -2.0310     2.2490    -8.1000 hn         1 346       0.214133
     51 H21          1.4550     3.6110    -8.8430 hn         1 346       0.378400
     52 H5          -1.5280     1.9330    -5.8980 ha         1 346       0.079500
     53 H6          -0.4740     0.8300    -3.9690 ha         1 346       0.138500
     54 H13         -2.0300     3.6690    -7.2900 hn         1 346       0.214133
@<TRIPOS>BOND
     1     1     2 1   
     2     2     3 ar  
     3     2    16 ar  
     4     3     4 1   
     5     3    10 ar  
     6     4     5 1   
     7     5     6 1   
     8     5     9 1   
     9     5    31 1   
    10     6     7 1   
    11     6    32 1   
    12     6    33 1   
    13     7     8 1   
    14     7    34 1   
    15     7    35 1   
    16     8     9 1   
    17     9    36 1   
    18     9    37 1   
    19    10    11 ar  
    20    10    38 1   
    21    11    12 1   
    22    11    15 ar  
    23    12    13 1   
    24    13    14 1   
    25    13    39 1   
    26    13    40 1   
    27    14    41 1   
    28    14    42 1   
    29    14    43 1   
    30    15    16 ar  
    31    15    44 1   
    32    16    17 1   
    33    17    18 1   
    34    17    21 1   
    35    17    45 1   
    36    18    19 1   
    37    18    20 1   
    38    21    22 1   
    39    21    46 1   
    40    22    23 ar  
    41    22    30 ar  
    42    23    24 ar  
    43    23    47 1   
    44    24    25 ar  
    45    24    48 1   
    46    25    26 1   
    47    25    29 ar  
    48    26    27 1   
    49    26    28 2   
    50    27    49 1   
    51    27    50 1   
    52    27    54 1   
    53    28    51 1   
    54    29    30 ar  
    55    29    52 1   
    56    30    53 1   
@<TRIPOS>SUBSTRUCTURE
     1 346         1 TEMP              0 ****  ****    0 ROOT
