@<TRIPOS>MOLECULE
molecule
   63    64     1     0     0
SMALL
bcc


@<TRIPOS>ATOM
      1 C1           0.0000     0.0000     0.0000 c3         1 347      -0.009000
      2 C2           1.4720     0.0000     0.0000 c1         1 347      -0.103100
      3 C3           2.6460     0.0000     0.0200 c1         1 347      -0.177100
      4 C4           4.1170    -0.0210     0.0310 c3         1 347       0.301900
      5 N1           4.4700    -0.3170    -1.4310 nu         1 347      -0.760600
      6 C5           5.9700    -0.3870    -1.6680 ca         1 347       0.154600
      7 C6           6.5460    -0.6530    -2.9590 ca         1 347      -0.178000
      8 C7           7.9690    -0.6420    -2.7920 ca         1 347      -0.009500
      9 C8           8.8620    -0.4480    -1.7510 ca         1 347      -0.238500
     10 C9           8.1150    -0.2340    -0.7310 ca         1 347      -0.009500
     11 C10          6.9930    -0.1100    -0.1980 ca         1 347      -0.178000
     12 S1          10.4820    -0.3700    -2.2200 sy         1 347       0.487300
     13 O1          11.2620    -1.2710    -1.0500 o          1 347      -0.328300
     14 O2          10.9900    -1.0310    -3.3630 o          1 347      -0.328300
     15 C11         10.7750     1.3900    -2.5450 c3         1 347      -0.073600
     16 C12         12.1830     1.5770    -3.1150 c3         1 347      -0.119000
     17 C13         13.2130     1.0640    -2.1060 c3         1 347      -0.162400
     18 C14         12.9510    -0.5040    -1.6220 c3         1 347      -0.142000
     19 N2          12.8340    -1.2580    -3.0060 n          1 347      -0.420800
     20 C15         12.1040    -0.6800    -4.2330 c3         1 347      -0.142000
     21 C16         12.4290     3.0620    -3.3880 c3         1 347      -0.162400
     22 C17         14.0260    -2.2370    -3.2640 c          1 347       0.664100
     23 O3          15.0370    -2.3530    -2.4630 o          1 347      -0.541000
     24 O4          14.1480    -3.2280    -4.4930 os         1 347      -0.399900
     25 C18         15.1310    -4.1320    -4.2770 c3         1 347       0.132800
     26 C19         16.5400    -3.6840    -3.8910 c3         1 347      -0.100433
     27 C20         14.8310    -5.0240    -2.9050 c3         1 347      -0.100433
     28 C21         15.1610    -4.8460    -5.5980 c3         1 347      -0.100433
     29 C22         12.3100     0.8030    -4.4020 c          1 347       0.926100
     30 O5          12.9120     0.2670    -4.8550 o          1 347      -0.290100
     31 N3          11.3460     1.6800    -5.7380 ns         1 347      -0.722400
     32 O6          11.3910     1.1640    -6.9720 oh         1 347      -0.432100
     33 H11         -0.3610     0.9990    -0.2100 hc         1 347       0.056033
     34 H12         -0.3610    -0.6820    -0.7600 hc         1 347       0.056033
     35 H13         -0.3610    -0.3170     0.9710 hc         1 347       0.056033
     36 H41          4.5110     0.9430     0.3320 h1         1 347       0.067200
     37 H42          4.4840    -0.8060     0.6800 h1         1 347       0.067200
     38 HN1          3.9780    -1.0330    -1.9290 hn         1 347       0.415800
     39 H6           6.0310    -0.6240    -3.9120 ha         1 347       0.183500
     40 H7           8.4810    -0.8470    -3.7240 ha         1 347       0.080500
     41 H9           8.8150    -0.1160     0.0880 ha         1 347       0.080500
     42 H10          6.8210     0.5790     0.6200 ha         1 347       0.183500
     43 H111        10.3900     1.9850    -1.7260 h1         1 347       0.117200
     44 H112        10.2910     1.6790    -3.4700 h1         1 347       0.117200
     45 H131        13.1870     1.7030    -1.2320 hc         1 347       0.047950
     46 H132        14.1960     1.1250    -2.5570 hc         1 347       0.047950
     47 H141        13.7930    -0.8760    -1.0510 h1         1 347       0.217200
     48 H142        12.0270    -0.5840    -1.0610 h1         1 347       0.217200
     49 H151        11.0380    -0.7880    -4.0740 h1         1 347       0.217200
     50 H152        12.3860    -1.2650    -5.1000 h1         1 347       0.217200
     51 H161        12.2370     3.6540    -2.5010 hc         1 347       0.047950
     52 H162        13.4340     3.2240    -3.7600 hc         1 347       0.047950
     53 H191        16.6160    -3.6200    -2.8130 hc         1 347       0.043589
     54 H192        17.2610    -4.4030    -4.2620 hc         1 347       0.043589
     55 H193        16.7420    -2.7130    -4.3260 hc         1 347       0.043589
     56 H201        15.0120    -4.4120    -2.0290 hc         1 347       0.043589
     57 H202        15.4860    -5.8860    -2.8850 hc         1 347       0.043589
     58 H203        13.7990    -5.3540    -2.9070 hc         1 347       0.043589
     59 H211        15.8280    -5.6970    -5.5330 hc         1 347       0.043589
     60 H212        15.5140    -4.1680    -6.3670 hc         1 347       0.043589
     61 H213        14.1640    -5.1860    -5.8480 hc         1 347       0.043589
     62 HN3         11.0480     2.6250    -5.6010 hn         1 347       0.254500
     63 HO6         11.1160     1.8160    -7.5950 ho         1 347       0.375000
@<TRIPOS>BOND
     1     1     2 1   
     2     1    33 1   
     3     1    34 1   
     4     1    35 1   
     5     2     3 3   
     6     3     4 1   
     7     4     5 1   
     8     4    36 1   
     9     4    37 1   
    10     5     6 1   
    11     5    38 1   
    12     6     7 ar  
    13     6    11 ar  
    14     7     8 ar  
    15     7    39 1   
    16     8     9 ar  
    17     8    40 1   
    18     9    12 1   
    19     9    10 ar  
    20    10    11 ar  
    21    10    41 1   
    22    11    42 1   
    23    12    13 2   
    24    12    14 2   
    25    12    15 1   
    26    15    16 1   
    27    15    43 1   
    28    15    44 1   
    29    16    17 1   
    30    16    29 1   
    31    16    21 1   
    32    17    18 1   
    33    17    45 1   
    34    17    46 1   
    35    18    19 1   
    36    18    47 1   
    37    18    48 1   
    38    19    22 1   
    39    19    20 1   
    40    20    21 1   
    41    20    49 1   
    42    20    50 1   
    43    21    51 1   
    44    21    52 1   
    45    22    23 2   
    46    22    24 1   
    47    24    25 1   
    48    25    27 1   
    49    25    26 1   
    50    25    28 1   
    51    26    53 1   
    52    26    54 1   
    53    26    55 1   
    54    27    56 1   
    55    27    57 1   
    56    27    58 1   
    57    28    59 1   
    58    28    60 1   
    59    28    61 1   
    60    29    31 1   
    61    29    30 2   
    62    31    32 1   
    63    31    62 1   
    64    32    63 1   
@<TRIPOS>SUBSTRUCTURE
     1 347         1 TEMP              0 ****  ****    0 ROOT
