@<TRIPOS>MOLECULE
347
   64    65     1     0     0
SMALL
bcc


@<TRIPOS>ATOM
      1 C1          1.8860   -1.4250   -1.7420 c3        1 347     -0.124000
      2 C2          2.7860   -1.0080   -0.7180 c1        1 347     -0.101000
      3 C3          3.5470   -0.6570    0.1370 c1        1 347     -0.247000
      4 C4          4.4980   -0.2360    1.1380 c3        1 347      0.077000
      5 N1          3.9730    0.5530    2.2260 nh        1 347     -0.286000
      6 C5          3.1950    0.0050    3.2330 ca        1 347      0.156000
      7 C6          2.4790    0.8690    4.1120 ca        1 347     -0.219000
      8 C7          1.7800    0.3560    5.1870 ca        1 347      0.003500
      9 C8          1.7420   -1.0230    5.4490 ca        1 347     -0.707000
     10 C9          2.4410   -1.8730    4.5830 ca        1 347      0.003500
     11 C10         3.1420   -1.3900    3.4930 ca        1 347     -0.219000
     12 S1          0.7930   -1.5760    6.7130 s4        1 347      1.599000
     13 O1          1.5870   -0.9590    8.0840 oh        1 347     -0.609000
     14 O2          1.1880   -2.9900    6.9730 o         1 347     -0.900000
     15 C11         1.3570   -5.5500    4.8110 cx        1 347     -0.156000
     16 C12         1.3580   -5.9930    6.2700 cx        1 347     -0.188000
     17 C13         2.6770   -6.3360    6.8910 c3        1 347     -0.144000
     18 C14         3.3100   -5.1950    7.6810 c3        1 347     -0.182000
     19 N2          2.8610   -5.1710    9.1100 n4        1 347      0.045000
     20 C15         1.4660   -4.7890    9.2980 c2        1 347     -0.523000
     21 C16         0.8510   -6.9070    5.1610 cx        1 347     -0.156000
     22 C17         3.7340   -4.2830    9.9550 c2        1 347      0.390000
     23 O3          4.4620   -4.8020   10.7950 o         1 347     -0.280000
     24 O4          3.6440   -2.9770    9.6650 os        1 347     -0.248000
     25 C18         4.4420   -2.0260   10.4910 c3        1 347      0.118000
     26 C19         4.0340   -0.6800    9.9110 c3        1 347     -0.246000
     27 C20         4.0320   -2.1470   11.9440 c3        1 347     -0.246000
     28 C21         5.9180   -2.2950   10.2770 c3        1 347     -0.246000
     29 C22         0.2980   -5.3720    7.1110 c2        1 347      0.300000
     30 O5         -0.6760   -4.7510    6.7180 o         1 347     -0.178000
     31 N3          0.4360   -5.6030    8.6180 n4        1 347      0.133000
     32 O6         -0.7710   -5.3770    9.1980 oh        1 347     -0.213000
     33 H11         0.8340   -1.1400   -1.4800 hc        1 347      0.104000
     34 H12         2.1520   -0.9400   -2.7180 hc        1 347      0.104000
     35 H13         1.9300   -2.5370   -1.8770 hc        1 347      0.104000
     36 H41         5.0160   -1.1470    1.5650 h1        1 347      0.117000
     37 H42         5.2910    0.4000    0.6350 h1        1 347      0.117000
     38 HN1         3.7400    1.4930    1.9800 hn        1 347      0.221000
     39 H6          2.4850    1.9570    3.9400 ha        1 347      0.146000
     40 H7          1.2430    1.0480    5.8600 ha        1 347      0.135000
     41 H9          2.4180   -2.9610    4.7750 ha        1 347      0.135000
     42 H10         3.6540   -2.0980    2.8240 ha        1 347      0.146000
     43 H111        0.6380   -4.7630    4.5130 hc        1 347      0.139750
     44 H112        2.3330   -5.4400    4.3030 hc        1 347      0.139750
     45 H131        2.5780   -7.2660    7.5150 hc        1 347      0.116000
     46 H132        3.3980   -6.5940    6.0620 hc        1 347      0.116000
     47 H141        4.4310   -5.3050    7.6650 hx        1 347      0.159500
     48 H142        3.0250   -4.1990    7.2210 hx        1 347      0.159500
     49 H151        2.2030   -1.5950    8.4600 ho        1 347      0.245000
     50 H152        1.3020   -3.7050    9.0970 hx        1 347      0.172000
     51 H161       -0.2360   -7.1070    5.0980 hc        1 347      0.139750
     52 H162        1.4550   -7.8000    4.9150 hc        1 347      0.139750
     53 H191        4.6630    0.1130   10.3840 hc        1 347      0.108889
     54 H192        4.1950   -0.6590    8.8060 hc        1 347      0.108889
     55 H193        2.9580   -0.4650   10.1230 hc        1 347      0.108889
     56 H201        4.4090   -3.1000   12.3900 hc        1 347      0.108889
     57 H202        4.4660   -1.2910   12.5160 hc        1 347      0.108889
     58 H203        2.9200   -2.1150   12.0390 hc        1 347      0.108889
     59 H211        6.2150   -3.2780   10.7160 hc        1 347      0.108889
     60 H212        6.1600   -2.2910    9.1870 hc        1 347      0.108889
     61 H213        6.5100   -1.4910   10.7790 hc        1 347      0.108889
     62 HN3         0.6390   -6.6100    8.7580 hn        1 347      0.233000
     63 HO6        -0.6400   -4.7780    9.9700 ho        1 347      0.278000
     64 H32         2.9880   -6.1150    9.5090 hn        1 347      0.244000
@<TRIPOS>BOND
     1    1    2 1   
     2    1   33 1   
     3    1   34 1   
     4    1   35 1   
     5    2    3 1   
     6    3    4 1   
     7    4    5 1   
     8    4   36 1   
     9    4   37 1   
    10    5    6 1   
    11    5   38 1   
    12    6    7 1   
    13    6   11 1   
    14    7    8 1   
    15    7   39 1   
    16    8    9 1   
    17    8   40 1   
    18    9   10 1   
    19    9   12 1   
    20   10   11 1   
    21   10   41 1   
    22   11   42 1   
    23   12   13 1   
    24   12   14 1   
    25   13   49 1   
    26   15   16 1   
    27   15   21 1   
    28   15   43 1   
    29   15   44 1   
    30   16   17 1   
    31   16   21 1   
    32   16   29 1   
    33   17   18 1   
    34   17   45 1   
    35   17   46 1   
    36   18   19 1   
    37   18   47 1   
    38   18   48 1   
    39   19   20 1   
    40   19   22 1   
    41   19   64 1   
    42   20   31 1   
    43   20   50 1   
    44   21   51 1   
    45   21   52 1   
    46   22   23 1   
    47   22   24 1   
    48   24   25 1   
    49   25   26 1   
    50   25   27 1   
    51   25   28 1   
    52   26   53 1   
    53   26   54 1   
    54   26   55 1   
    55   27   56 1   
    56   27   57 1   
    57   27   58 1   
    58   28   59 1   
    59   28   60 1   
    60   28   61 1   
    61   29   30 1   
    62   29   31 1   
    63   31   32 1   
    64   31   62 1   
    65   32   63 1   
@<TRIPOS>SUBSTRUCTURE
     1 347         1 TEMP              0 ****  ****    0 ROOT
