@<TRIPOS>MOLECULE
molecule
   68    72     1     0     0
SMALL
bcc


@<TRIPOS>ATOM
      1 N1           0.0000     0.0000     0.0000 nz         1 348      -0.741600
      2 C3           1.3770     0.0000     0.0000 ce         1 348       0.526800
      3 N2           2.0280     0.0000     1.1270 n2         1 348      -0.742100
      4 C4           2.1170    -0.0010    -1.2830 ca         1 348      -0.244900
      5 C9           3.5120    -0.0000    -1.2860 ca         1 348      -0.097500
      6 C8           4.1960    -0.0000    -2.4850 ca         1 348      -0.073500
      7 C7           3.5020    -0.0010    -3.6810 ca         1 348       0.012700
      8 C6           2.1190     0.0050    -3.6840 ca         1 348      -0.073500
      9 C5           1.4230    -0.0000    -2.4920 ca         1 348      -0.097500
     10 C10          4.2550    -0.0010    -4.9860 c3         1 348       0.187800
     11 N11          3.5650     0.8610    -5.9590 n3         1 348      -0.667600
     12 C12          4.6140     1.8350    -6.4370 c3         1 348       0.124800
     13 C13          4.1510     2.2060    -7.8670 c3         1 348      -0.085400
     14 C14          3.5850     0.8710    -8.4040 c3         1 348      -0.088400
     15 C15          3.2100     0.0640    -7.1500 c3         1 348       0.142500
     16 C16          4.0370    -1.2280    -7.0920 c3         1 348      -0.104700
     17 C17          3.1200    -2.4290    -7.4080 c3         1 348       0.111700
     18 N19          2.4830    -2.7860    -6.1340 n          1 348      -0.476800
     19 C20          3.1380    -2.2460    -5.0930 c          1 348       0.709500
     20 O21          2.8180    -2.3780    -3.9300 o          1 348      -0.653500
     21 C22          4.3210    -1.4410    -5.5770 c3         1 348      -0.167700
     22 C23          1.2840    -3.6190    -6.0160 c3         1 348       0.163300
     23 C24          0.0670    -2.7370    -5.9160 ca         1 348      -0.150300
     24 C32         -0.5600    -2.2930    -7.0660 ca         1 348      -0.076500
     25 C31         -1.6760    -1.4840    -6.9760 ca         1 348      -0.197500
     26 C30         -2.1670    -1.1160    -5.7330 ca         1 348       0.132100
     27 O29         -3.2650    -0.3200    -5.6420 os         1 348      -0.281900
     28 C28         -3.5200    -0.1230    -4.2500 c3         1 348       0.110700
     29 C26         -1.5330    -1.5580    -4.5800 ca         1 348      -0.197500
     30 C25         -0.4200    -2.3720    -4.6750 ca         1 348      -0.076500
     31 C18          3.9460    -3.6040    -7.9340 c3         1 348      -0.091700
     32 C41          3.0420    -4.8280    -8.1010 c3         1 348      -0.091100
     33 C42          4.5560    -3.2330    -9.2870 c3         1 348      -0.091100
     34 H1N1        -0.3340     0.0610     0.9420 hn         1 348       0.470800
     35 H1N2        -0.3340     0.7850    -0.5230 hn         1 348       0.470800
     36 H2N          3.0290    -0.0000     1.1280 hn         1 348       0.482400
     37 H9           4.0570     0.0010    -0.3500 ha         1 348       0.116500
     38 H8           5.2790    -0.0020    -2.4890 ha         1 348       0.161000
     39 H6           1.5810     0.0050    -4.6240 ha         1 348       0.161000
     40 H5           0.3390     0.0050    -2.4960 ha         1 348       0.116500
     41 H10          5.2600     0.3690    -4.8280 h1         1 348       0.072700
     42 H121         4.6300     2.7140    -5.8040 h1         1 348       0.052700
     43 H122         5.5870     1.3600    -6.4650 h1         1 348       0.052700
     44 H131         4.9910     2.5340    -8.4670 hc         1 348       0.061700
     45 H132         3.3760     2.9630    -7.8330 hc         1 348       0.061700
     46 H141         4.3420     0.3470    -8.9750 hc         1 348       0.057200
     47 H142         2.7060     1.0540    -9.0100 hc         1 348       0.057200
     48 H15          2.1510    -0.1640    -7.1500 h1         1 348       0.083700
     49 H16          4.9360    -1.1980    -7.6960 hc         1 348       0.094700
     50 H17          2.3670    -2.1400    -8.1310 h1         1 348       0.069700
     51 H22          5.2700    -1.9300    -5.3940 hc         1 348       0.104700
     52 H231         1.1990    -4.2550    -6.8890 h1         1 348       0.073700
     53 H232         1.3580    -4.2340    -5.1270 h1         1 348       0.073700
     54 H32         -0.1760    -2.5800    -8.0370 ha         1 348       0.138000
     55 H31         -2.1670    -1.1360    -7.8770 ha         1 348       0.137500
     56 H281        -4.4210     0.4660    -4.1280 h1         1 348       0.039033
     57 H282        -3.6480    -1.0840    -3.7660 h1         1 348       0.039033
     58 H283        -2.6840     0.3990    -3.8000 h1         1 348       0.039033
     59 H26         -1.9150    -1.2720    -3.6080 ha         1 348       0.137500
     60 H25          0.0750    -2.7170    -3.7760 ha         1 348       0.138000
     61 H18          4.7380    -3.8330    -7.2310 hc         1 348       0.059700
     62 H411         2.1080    -4.5280    -8.5610 hc         1 348       0.041533
     63 H412         3.5360    -5.5590    -8.7300 hc         1 348       0.041533
     64 H413         2.8420    -5.2650    -7.1300 hc         1 348       0.041533
     65 H421         3.8680    -2.5980    -9.8320 hc         1 348       0.041533
     66 H422         5.4890    -2.7050    -9.1300 hc         1 348       0.041533
     67 H423         4.7440    -4.1350    -9.8580 hc         1 348       0.041533
     68 H13         -0.3340    -0.8480    -0.4130 hn         1 348       0.470800
@<TRIPOS>BOND
     1     1     2 1
     2     1    34 1
     3     1    35 1
     4     2     3 2
     5     2     4 1
     6     3    36 1
     7     4     5 ar
     8     4     9 ar
     9     5     6 ar
    10     5    37 1
    11     6     7 ar
    12     6    38 1
    13     7     8 ar
    14     7    10 1
    15     8     9 ar
    16     8    39 1
    17     9    40 1
    18    10    11 1
    19    10    21 1
    20    10    41 1
    21    11    12 1
    22    11    15 1
    23    12    13 1
    24    12    42 1
    25    12    43 1
    26    13    14 1
    27    13    44 1
    28    13    45 1
    29    14    15 1
    30    14    46 1
    31    14    47 1
    32    15    16 1
    33    15    48 1
    34    16    17 1
    35    16    21 1
    36    16    49 1
    37    17    18 1
    38    17    31 1
    39    17    50 1
    40    18    19 1
    41    18    22 1
    42    19    20 2
    43    19    21 1
    44    21    51 1
    45    22    23 1
    46    22    52 1
    47    22    53 1
    48    23    24 ar
    49    23    30 ar
    50    24    25 ar
    51    24    54 1
    52    25    26 ar
    53    25    55 1
    54    26    27 1
    55    26    29 ar
    56    27    28 1
    57    28    56 1
    58    28    57 1
    59    28    58 1
    60    29    30 ar
    61    29    59 1
    62    30    60 1
    63    31    32 1
    64    31    33 1
    65    31    61 1
    66    32    62 1
    67    32    63 1
    68    32    64 1
    69    33    65 1
    70    33    66 1
    71    33    67 1
    72    68     1 1
@<TRIPOS>SUBSTRUCTURE
     1 348         1 TEMP              0 ****  ****    0 ROOT
