@<TRIPOS>MOLECULE
348
   68    72     1     0     0
SMALL
bcc


@<TRIPOS>ATOM
      1 N1           0.0000     0.0000     0.0000 nz         1 348       0.119400
      2 C3           1.3770     0.0000     0.0000 ce         1 348       0.246800
      3 N2           2.0280     0.0000     1.1270 n2         1 348      -0.479100
      4 C4           2.1170    -0.0010    -1.2830 ca         1 348      -0.209900
      5 C9           3.5120    -0.0000    -1.2860 ca         1 348      -0.056000
      6 C8           4.1960    -0.0000    -2.4850 ca         1 348      -0.055000
      7 C7           3.5020    -0.0010    -3.6810 ca         1 348       0.008700
      8 C6           2.1190     0.0050    -3.6840 ca         1 348      -0.055000
      9 C5           1.4230    -0.0000    -2.4920 ca         1 348      -0.056000
     10 C10          4.2550    -0.0010    -4.9860 c3         1 348       0.176800
     11 N11          3.5650     0.8610    -5.9590 n3         1 348      -0.534600
     12 C12          4.6140     1.8350    -6.4370 c3         1 348       0.141800
     13 C13          4.1510     2.2060    -7.8670 c3         1 348      -0.025400
     14 C14          3.5850     0.8710    -8.4040 c3         1 348      -0.033400
     15 C15          3.2100     0.0640    -7.1500 c3         1 348       0.125500
     16 C16          4.0370    -1.2280    -7.0920 c3         1 348      -0.082700
     17 C17          3.1200    -2.4290    -7.4080 c3         1 348       0.025700
     18 N19          2.4830    -2.7860    -6.1340 n          1 348      -0.138800
     19 C20          3.1380    -2.2460    -5.0930 c          1 348       0.639500
     20 O21          2.8180    -2.3780    -3.9300 o          1 348      -0.694500
     21 C22          4.3210    -1.4410    -5.5770 c3         1 348      -0.138700
     22 C23          1.2840    -3.6190    -6.0160 c3         1 348       0.111300
     23 C24          0.0670    -2.7370    -5.9160 ca         1 348      -0.165300
     24 C32         -0.5600    -2.2930    -7.0660 ca         1 348      -0.042500
     25 C31         -1.6760    -1.4840    -6.9760 ca         1 348      -0.188000
     26 C30         -2.1670    -1.1160    -5.7330 ca         1 348       0.148100
     27 O29         -3.2650    -0.3200    -5.6420 os         1 348      -0.267900
     28 C28         -3.5200    -0.1230    -4.2500 c3         1 348       0.224700
     29 C26         -1.5330    -1.5580    -4.5800 ca         1 348      -0.188000
     30 C25         -0.4200    -2.3720    -4.6750 ca         1 348      -0.042500
     31 C18          3.9460    -3.6040    -7.9340 c3         1 348      -0.069700
     32 C41          3.0420    -4.8280    -8.1010 c3         1 348      -0.002100
     33 C42          4.5560    -3.2330    -9.2870 c3         1 348      -0.002100
     34 H1N1        -0.3340    -0.8560    -0.3980 hn         1 348       0.225133
     35 H1N2        -0.3340     0.7720    -0.5420 hn         1 348       0.225133
     36 H2N          1.5290     0.0000     1.9950 hn         1 348       0.332400
     37 H9           4.0570     0.0010    -0.3490 ha         1 348       0.099000
     38 H8           5.2790    -0.0020    -2.4890 ha         1 348       0.127500
     39 H6           1.5810     0.0050    -4.6240 ha         1 348       0.127500
     40 H5           0.3390     0.0050    -2.4960 ha         1 348       0.099000
     41 H10          5.2600     0.3690    -4.8280 h1         1 348       0.046700
     42 H121         5.5870     1.3600    -6.4650 h1         1 348       0.022200
     43 H122         4.6300     2.7140    -5.8040 h1         1 348       0.022200
     44 H131         3.3760     2.9630    -7.8330 hc         1 348       0.029200
     45 H132         4.9910     2.5340    -8.4670 hc         1 348       0.029200
     46 H141         4.3420     0.3470    -8.9750 hc         1 348       0.027200
     47 H142         2.7060     1.0540    -9.0100 hc         1 348       0.027200
     48 H15          2.1510    -0.1640    -7.1500 h1         1 348       0.049700
     49 H16          4.9360    -1.1980    -7.6960 hc         1 348       0.075700
     50 H17          2.3670    -2.1400    -8.1310 h1         1 348       0.049700
     51 H22          5.2700    -1.9300    -5.3940 hc         1 348       0.071700
     52 H231         1.1990    -4.2550    -6.8890 h1         1 348       0.046700
     53 H232         1.3580    -4.2340    -5.1270 h1         1 348       0.046700
     54 H32         -0.1760    -2.5800    -8.0370 ha         1 348       0.110000
     55 H31         -2.1670    -1.1360    -7.8770 ha         1 348       0.119000
     56 H281        -2.6840     0.3990    -3.8000 h1         1 348      -0.002967
     57 H282        -4.4210     0.4660    -4.1280 h1         1 348      -0.002967
     58 H283        -3.6480    -1.0840    -3.7670 h1         1 348      -0.002967
     59 H26         -1.9150    -1.2720    -3.6080 ha         1 348       0.119000
     60 H25          0.0750    -2.7170    -3.7760 ha         1 348       0.110000
     61 H18          4.7380    -3.8330    -7.2310 hc         1 348       0.035700
     62 H411         2.8420    -5.2650    -7.1300 hc         1 348       0.011867
     63 H412         2.1080    -4.5280    -8.5610 hc         1 348       0.011867
     64 H413         3.5360    -5.5580    -8.7300 hc         1 348       0.011867
     65 H421         5.4890    -2.7060    -9.1300 hc         1 348       0.011867
     66 H422         3.8690    -2.5970    -9.8310 hc         1 348       0.011867
     67 H423         4.7420    -4.1340    -9.8590 hc         1 348       0.011867
     68 H13         -0.3340     0.0890     0.9390 hn         1 348       0.225133
@<TRIPOS>BOND
     1     1     2 1   
     2     1    34 1   
     3     1    35 1   
     4     1    68 1   
     5     2     3 2   
     6     2     4 1   
     7     3    36 1   
     8     4     5 ar  
     9     4     9 ar  
    10     5     6 ar  
    11     5    37 1   
    12     6     7 ar  
    13     6    38 1   
    14     7     8 ar  
    15     7    10 1   
    16     8     9 ar  
    17     8    39 1   
    18     9    40 1   
    19    10    11 1   
    20    10    21 1   
    21    10    41 1   
    22    11    12 1   
    23    11    15 1   
    24    12    13 1   
    25    12    42 1   
    26    12    43 1   
    27    13    14 1   
    28    13    44 1   
    29    13    45 1   
    30    14    15 1   
    31    14    46 1   
    32    14    47 1   
    33    15    16 1   
    34    15    48 1   
    35    16    17 1   
    36    16    21 1   
    37    16    49 1   
    38    17    18 1   
    39    17    31 1   
    40    17    50 1   
    41    18    19 1   
    42    18    22 1   
    43    19    20 2   
    44    19    21 1   
    45    21    51 1   
    46    22    23 1   
    47    22    52 1   
    48    22    53 1   
    49    23    24 ar  
    50    23    30 ar  
    51    24    25 ar  
    52    24    54 1   
    53    25    26 ar  
    54    25    55 1   
    55    26    27 1   
    56    26    29 ar  
    57    27    28 1   
    58    28    56 1   
    59    28    57 1   
    60    28    58 1   
    61    29    30 ar  
    62    29    59 1   
    63    30    60 1   
    64    31    32 1   
    65    31    33 1   
    66    31    61 1   
    67    32    62 1   
    68    32    63 1   
    69    32    64 1   
    70    33    65 1   
    71    33    66 1   
    72    33    67 1   
@<TRIPOS>SUBSTRUCTURE
     1 348         1 TEMP              0 ****  ****    0 ROOT
