@<TRIPOS>MOLECULE
molecule
   58    62     1     0     0
SMALL
bcc


@<TRIPOS>ATOM
      1 O32          0.0000     0.0000     0.0000 o          1 349      -0.627300
      2 S30          1.4210     0.0000     0.0000 sy         1 349       1.440200
      3 O31          2.1980     0.0000     1.1900 o          1 349      -0.627300
      4 N33          1.8890    -1.3330    -0.8630 n3         1 349      -0.833500
      5 C34          3.1420    -2.0790    -0.6760 c3         1 349       0.233300
      6 C35          3.1560    -3.2190    -1.7160 c3         1 349      -0.093900
      7 C36          2.1740    -2.7100    -2.8040 c3         1 349      -0.093900
      8 C37          1.1150    -1.9730    -1.9430 c3         1 349       0.233300
      9 C29          1.9200     1.4180    -0.9190 ca         1 349      -0.300500
     10 C28          0.9660     2.2660    -1.4520 ca         1 349      -0.026000
     11 C27          1.3570     3.3790    -2.1740 ca         1 349      -0.144000
     12 C26          2.7010     3.6440    -2.3610 ca         1 349      -0.073000
     13 C25          3.6540     2.7960    -1.8270 ca         1 349      -0.146000
     14 C24          3.2630     1.6860    -1.1020 ca         1 349      -0.016300
     15 C23          4.3020     0.7660    -0.5170 c3         1 349       0.252100
     16 N22          5.2420     1.5430     0.2940 nu         1 349      -0.882900
     17 C21          6.2320     0.8970     1.0170 ca         1 349       0.814200
     18 N20          6.4010    -0.4160     0.9060 nb         1 349      -0.864000
     19 C8           7.3470    -1.0350     1.5950 ca         1 349       0.993900
     20 N7           8.1530    -0.3780     2.4150 nb         1 349      -0.832000
     21 C6           8.0420     0.9330     2.5740 ca         1 349       0.576200
     22 C5           7.0730     1.6190     1.8690 ca         1 349      -0.551900
     23 C2           6.9200     3.1110     2.0200 c3         1 349       0.690200
     24 F4           7.8980     3.5920     2.8980 f          1 349      -0.225633
     25 F3           7.0720     3.7230     0.7720 f          1 349      -0.225633
     26 F1           5.6500     3.4000     2.5310 f          1 349      -0.225633
     27 N9           7.4960    -2.4050     1.4560 nu         1 349      -0.760300
     28 C10          8.4370    -3.0900     2.2370 ca         1 349       0.151600
     29 C11          8.4610    -2.8840     3.6240 ca         1 349      -0.032000
     30 C12          9.3590    -3.5240     4.4510 ca         1 349      -0.145000
     31 C13         10.2920    -4.4180     3.9240 ca         1 349       0.123000
     32 N14         11.2600    -5.1650     4.4770 nc         1 349      -0.380400
     33 C18         10.2890    -4.6560     2.4620 ca         1 349      -0.125000
     34 C19          9.3080    -3.9500     1.6350 ca         1 349      -0.111000
     35 C17         11.2790    -5.5540     2.2080 cc         1 349      -0.183200
     36 C15         11.8990    -5.8710     3.5400 c          1 349       0.675700
     37 O16         12.8210    -6.6380     3.7310 o          1 349      -0.445100
     38 H34          3.1770    -2.4940     0.3240 h1         1 349       0.052950
     39 H34A         3.9880    -1.4230    -0.8400 h1         1 349       0.052950
     40 H35          2.7930    -4.1410    -1.2770 hc         1 349       0.054950
     41 H35A         4.1490    -3.3480    -2.1290 hc         1 349       0.054950
     42 H36          2.6690    -2.0220    -3.4790 hc         1 349       0.054950
     43 H36A         1.7280    -3.5390    -3.3400 hc         1 349       0.054950
     44 H37          0.4070    -2.6820    -1.5300 h1         1 349       0.052950
     45 H37A         0.6050    -1.2230    -2.5360 h1         1 349       0.052950
     46 H28         -0.0870     2.0580    -1.3040 ha         1 349       0.161000
     47 H27          0.6110     4.0430    -2.5920 ha         1 349       0.141000
     48 H26          3.0080     4.5150    -2.9280 ha         1 349       0.138000
     49 H25          4.7070     3.0050    -1.9720 ha         1 349       0.141000
     50 H23          3.8170     0.0230     0.1050 h1         1 349       0.075200
     51 H23A         4.8380     0.2710    -1.3170 h1         1 349       0.075200
     52 HN22         5.1620     2.5400     0.3350 hn         1 349       0.466800
     53 H6           8.7080     1.4620     3.2440 h4         1 349       0.048100
     54 HN9          6.9500    -2.9020     0.7810 hn         1 349       0.469800
     55 H11          7.7470    -2.1970     4.0610 ha         1 349       0.159000
     56 H12          9.3390    -3.3330     5.5170 ha         1 349       0.163000
     57 H19          9.1450    -4.2560     0.6090 ha         1 349       0.146000
     58 H17         11.9060    -5.4360     1.3330 ha         1 349       0.170000
@<TRIPOS>BOND
     1     1     2 2
     2     2     3 2
     3     2     4 1
     4     2     9 1
     5     4     5 1
     6     4     8 1
     7     5     6 1
     8     6     7 1
     9     7     8 1
    10     9    10 ar
    11     9    14 ar
    12    10    11 ar
    13    11    12 ar
    14    12    13 ar
    15    13    14 ar
    16    14    15 1
    17    15    16 1
    18    16    17 1
    19    17    18 ar
    20    17    22 ar
    21    18    19 ar
    22    19    20 ar
    23    19    27 1
    24    20    21 ar
    25    21    22 ar
    26    22    23 1
    27    23    24 1
    28    23    25 1
    29    23    26 1
    30    27    28 1
    31    28    29 ar
    32    28    34 ar
    33    29    30 ar
    34    30    31 ar
    35    31    32 2
    36    31    33 ar
    37    32    36 1
    38    33    34 ar
    39    33    35 2
    40    35    36 1
    41    36    37 2
    42     5    38 1
    43     5    39 1
    44     6    40 1
    45     6    41 1
    46     7    42 1
    47     7    43 1
    48     8    44 1
    49     8    45 1
    50    10    46 1
    51    11    47 1
    52    12    48 1
    53    13    49 1
    54    15    50 1
    55    15    51 1
    56    16    52 1
    57    21    53 1
    58    27    54 1
    59    29    55 1
    60    30    56 1
    61    34    57 1
    62    35    58 1
@<TRIPOS>SUBSTRUCTURE
     1 349         1 TEMP              0 ****  ****    0 ROOT
