@<TRIPOS>MOLECULE
molecule
   20    20     1     0     0
SMALL
bcc


@<TRIPOS>ATOM
      1 N1           0.0000     0.0000     0.0000 nv         1 34A      -0.991200
      2 C1           1.3960     0.0000     0.0000 ca         1 34A       0.160600
      3 C2           2.0920     0.0000     1.2020 ca         1 34A      -0.146000
      4 C3           3.4720    -0.0010     1.1980 ca         1 34A      -0.121000
      5 C4           4.1620    -0.0010    -0.0010 ca         1 34A      -0.091300
      6 C5           3.4730     0.0030    -1.1970 ca         1 34A      -0.079300
      7 C6           2.0930    -0.0010    -1.2010 ca         1 34A      -0.140000
      8 C7           5.6700    -0.0010    -0.0000 c3         1 34A      -0.044800
      9 C8           4.2280     0.0030    -2.5010 c3         1 34A      -0.045800
     10 HN11        -0.5000     0.8670    -0.0040 hn         1 34A       0.425800
     11 HN12        -0.5000    -0.8670    -0.0050 hn         1 34A       0.425800
     12 H2           1.5530     0.0000     2.1420 ha         1 34A       0.133000
     13 H3           4.0160    -0.0030     2.1350 ha         1 34A       0.129000
     14 H6           1.5530     0.0020    -2.1410 ha         1 34A       0.134000
     15 H71          6.0310     0.8850    -0.5090 hc         1 34A       0.041033
     16 H72          6.0310    -0.8840    -0.5130 hc         1 34A       0.041033
     17 H73          6.0310    -0.0040     1.0210 hc         1 34A       0.041033
     18 H81          4.8490    -0.8830    -2.5590 hc         1 34A       0.042033
     19 H82          4.8540     0.8860    -2.5560 hc         1 34A       0.042033
     20 H83          3.5260     0.0060    -3.3260 hc         1 34A       0.042033
@<TRIPOS>BOND
     1     1     2 1   
     2     1    10 1   
     3     1    11 1   
     4     2     3 ar  
     5     2     7 ar  
     6     3     4 ar  
     7     3    12 1   
     8     4     5 ar  
     9     4    13 1   
    10     5     6 ar  
    11     5     8 1   
    12     6     7 ar  
    13     6     9 1   
    14     7    14 1   
    15     8    15 1   
    16     8    16 1   
    17     8    17 1   
    18     9    18 1   
    19     9    19 1   
    20     9    20 1   
@<TRIPOS>SUBSTRUCTURE
     1 34A         1 TEMP              0 ****  ****    0 ROOT
