@<TRIPOS>MOLECULE
molecule
   27    27     1     0     0
SMALL
bcc


@<TRIPOS>ATOM
      1 Cl1          0.0000     0.0000     0.0000 cl         1 34C      -0.137400
      2 C1           1.7360     0.0000     0.0000 ca         1 34C       0.005400
      3 C2           2.4280     0.0000     1.1950 ca         1 34C      -0.085000
      4 C3           3.8090     0.0000     1.1960 ca         1 34C      -0.026300
      5 C4           4.5030    -0.0060     0.0000 ca         1 34C      -0.087000
      6 C5           3.8170    -0.0130    -1.1980 ca         1 34C      -0.218000
      7 C6           2.4310    -0.0130    -1.2020 ca         1 34C       0.088100
      8 C7           4.5610     0.0060     2.5020 c3         1 34C      -0.152100
      9 C8           4.8130     1.4290     2.9300 c          1 34C       0.892600
     10 C9           2.7320    -0.0260    -3.4200 c3         1 34C       0.119400
     11 C10          2.0330    -0.0330    -4.7800 c3         1 34C      -0.089400
     12 C11          3.0820    -0.0390    -5.8940 c3         1 34C      -0.091100
     13 O1           1.7540    -0.0200    -2.3800 os         1 34C      -0.300900
     14 O2           4.4200     2.3430     2.2440 o          1 34C      -0.841800
     15 O3           5.4720     1.6800     4.0720 o          1 34C      -0.841800
     16 HC21         1.8870     0.0050     2.1340 ha         1 34C       0.147000
     17 HC41         5.5870    -0.0060     0.0030 ha         1 34C       0.133000
     18 HC51         4.3620    -0.0200    -2.1340 ha         1 34C       0.127000
     19 HC71         5.5080    -0.5050     2.3760 hc         1 34C       0.041200
     20 HC72         3.9750    -0.5000     3.2590 hc         1 34C       0.041200
     21 HC91         3.3510    -0.9100    -3.3280 h1         1 34C       0.040200
     22 HC92         3.3520     0.8590    -3.3370 h1         1 34C       0.040200
     23 H101         1.4130    -0.9170    -4.8630 hc         1 34C       0.049700
     24 H102         1.4140     0.8520    -4.8720 hc         1 34C       0.049700
     25 H111         3.7020     0.8450    -5.8110 hc         1 34C       0.031700
     26 H112         2.5860    -0.0440    -6.8570 hc         1 34C       0.031700
     27 H113         3.7010    -0.9240    -5.8020 hc         1 34C       0.031700
@<TRIPOS>BOND
     1     1     2 1
     2     2     3 ar
     3     2     7 ar
     4     3     4 ar
     5     3    16 1
     6     4     5 ar
     7     4     8 1
     8     5     6 ar
     9     5    17 1
    10     6     7 ar
    11     6    18 1
    12     7    13 1
    13     8     9 1
    14     8    19 1
    15     8    20 1
    16     9    14 1
    17     9    15 1
    18    10    11 1
    19    10    13 1
    20    10    21 1
    21    10    22 1
    22    11    12 1
    23    11    23 1
    24    11    24 1
    25    12    25 1
    26    12    26 1
    27    12    27 1
@<TRIPOS>SUBSTRUCTURE
     1 34C         1 TEMP              0 ****  ****    0 ROOT
