@<TRIPOS>MOLECULE
34C
   27    27     1     0     0
SMALL
bcc


@<TRIPOS>ATOM
      1 CL1         0.2070   -0.5710   -0.4220 cl        1 34C     -0.128400
      2 C1          1.8900   -0.3950   -0.1900 ca        1 34C     -0.000600
      3 C2          2.3660   -0.1460    1.1020 ca        1 34C     -0.134000
      4 C3          3.7350    0.0080    1.3430 ca        1 34C     -0.022300
      5 C4          4.6320   -0.0860    0.2650 ca        1 34C     -0.099000
      6 C5          4.1700   -0.3410   -1.0190 ca        1 34C     -0.181000
      7 C6          2.7960   -0.5030   -1.2550 ca        1 34C      0.075100
      8 C7          4.2390    0.2500    2.7140 c3        1 34C     -0.177100
      9 C8          5.3000    1.3750    2.7960 c         1 34C      0.918600
     10 C9          2.9260   -0.1100   -3.5850 c3        1 34C      0.132400
     11 C10         1.9230   -0.0900   -4.7260 c3        1 34C     -0.090400
     12 C11         2.5090    0.5850   -5.9370 c3        1 34C     -0.091100
     13 O1          2.3070   -0.8340   -2.5130 os        1 34C     -0.338900
     14 O2          6.4050    1.1980    2.2080 o         1 34C     -0.838300
     15 O3          5.0120    2.3930    3.4810 o         1 34C     -0.838300
     16 HC21        1.6530   -0.0580    1.9370 ha        1 34C      0.138000
     17 HC41        5.7080    0.0810    0.4700 ha        1 34C      0.197000
     18 HC51        4.8770   -0.4130   -1.8570 ha        1 34C      0.126000
     19 HC71        3.3940    0.5060    3.4040 hc        1 34C      0.041200
     20 HC72        4.7270   -0.6890    3.0880 hc        1 34C      0.041200
     21 HC91        3.8600   -0.6560   -3.8840 h1        1 34C      0.037200
     22 HC92        3.1930    0.9290   -3.2630 h1        1 34C      0.037200
     23 H101        1.6240   -1.1420   -4.9720 hc        1 34C      0.051700
     24 H102        0.9970    0.4470   -4.3910 hc        1 34C      0.051700
     25 H111        3.4210    0.0450   -6.2890 hc        1 34C      0.030367
     26 H112        2.7960    1.6390   -5.7020 hc        1 34C      0.030367
     27 H113        1.7640    0.5990   -6.7690 hc        1 34C      0.030367
@<TRIPOS>BOND
     1    1    2 1   
     2    2    3 ar  
     3    2    7 ar  
     4    3    4 ar  
     5    3   16 1   
     6    4    5 ar  
     7    4    8 1   
     8    5    6 ar  
     9    5   17 1   
    10    6    7 ar  
    11    6   18 1   
    12    7   13 1   
    13    8    9 1   
    14    8   19 1   
    15    8   20 1   
    16    9   14 1   
    17    9   15 1   
    18   10   11 1   
    19   10   13 1   
    20   10   21 1   
    21   10   22 1   
    22   11   12 1   
    23   11   23 1   
    24   11   24 1   
    25   12   25 1   
    26   12   26 1   
    27   12   27 1   
@<TRIPOS>SUBSTRUCTURE
     1 34C         1 TEMP              0 ****  ****    0 ROOT
