@<TRIPOS>MOLECULE
34D
   16    16     1     0     0
SMALL
bcc


@<TRIPOS>ATOM
      1 C2          0.0790    0.1290   -0.0090 ca        1 34D     -0.213000
      2 C3          1.4790    0.1040   -0.0010 ca        1 34D      0.111100
      3 O3          2.2190    0.0980   -1.1700 oh        1 34D     -0.525100
      4 C4          2.2090    0.0830    1.1950 ca        1 34D     -0.208000
      5 C5          1.4830    0.0880    2.3930 ca        1 34D      0.111100
      6 C1         -0.6200    0.1330    1.2000 ca        1 34D     -0.060600
      7 C6          0.0840    0.1130    2.4070 ca        1 34D     -0.213000
      8 C          -2.1450    0.1610    1.2030 c         1 34D      0.908200
      9 O1         -2.7310    0.1650    2.3220 o         1 34D     -0.827300
     10 O2         -2.7350    0.1770    0.0870 o         1 34D     -0.827300
     11 O5          2.2280    0.0670    3.5610 oh        1 34D     -0.525100
     12 H2         -0.4940    0.1450   -0.9480 ha        1 34D      0.155000
     13 H3          1.5880    0.1140   -1.9030 ho        1 34D      0.410000
     14 H4          3.3040    0.0630    1.1930 ha        1 34D      0.139000
     15 H6         -0.4860    0.1170    3.3490 ha        1 34D      0.155000
     16 H5          1.5990    0.0740    4.2960 ho        1 34D      0.410000
@<TRIPOS>BOND
     1    1    2 ar  
     2    1    6 ar  
     3    1   12 1   
     4    2    3 1   
     5    2    4 ar  
     6    3   13 1   
     7    4    5 ar  
     8    4   14 1   
     9    5    7 ar  
    10    5   11 1   
    11    6    7 ar  
    12    6    8 1   
    13    7   15 1   
    14    8    9 1   
    15    8   10 1   
    16   11   16 1   
@<TRIPOS>SUBSTRUCTURE
     1 34D         1 TEMP              0 ****  ****    0 ROOT
