@<TRIPOS>MOLECULE
molecule
   16    16     1     0     0
SMALL
bcc


@<TRIPOS>ATOM
      1 C2           0.0000     0.0000     0.0000 ca         1 34D      -0.125000
      2 C3           1.3850     0.0000     0.0000 ca         1 34D       0.070600
      3 O3           2.0650    -0.0070    -1.1770 oh         1 34D      -0.533100
      4 C4           2.0800     0.0000     1.2000 ca         1 34D      -0.201000
      5 C5           1.3920     0.0070     2.4060 ca         1 34D       0.070600
      6 C1          -0.6960     0.0130     1.2090 ca         1 34D      -0.083600
      7 C6           0.0080     0.0130     2.4150 ca         1 34D      -0.125000
      8 C           -2.1730     0.0190     1.2140 c          1 34D       0.882200
      9 O1          -2.7770     0.0250     2.2670 o          1 34D      -0.832800
     10 O2          -2.8510     0.0190     0.0490 o          1 34D      -0.832800
     11 O5           2.0790     0.0070     3.5790 oh         1 34D      -0.533100
     12 H2          -0.5420     0.0000    -0.9380 ha         1 34D       0.160500
     13 H3           2.2210     0.8810    -1.4540 ho         1 34D       0.400500
     14 H4           3.1640    -0.0020     1.1970 ha         1 34D       0.121000
     15 H6          -0.5280     0.0210     3.3560 ha         1 34D       0.160500
     16 H5           2.2410     0.8960     3.8480 ho         1 34D       0.400500
@<TRIPOS>BOND
     1     1     2 ar
     2     1     6 ar
     3     1    12 1
     4     2     3 1
     5     2     4 ar
     6     3    13 1
     7     4     5 ar
     8     4    14 1
     9     5     7 ar
    10     5    11 1
    11     6     7 ar
    12     6     8 1
    13     7    15 1
    14     8     9 1
    15     8    10 1
    16    11    16 1
@<TRIPOS>SUBSTRUCTURE
     1 34D         1 TEMP              0 ****  ****    0 ROOT
