@<TRIPOS>MOLECULE
34F
   29    29     1     0     0
SMALL
bcc


@<TRIPOS>ATOM
      1 C1           0.0000     0.0000     0.0000 c          1 34F       0.622900
      2 N1           1.3470     0.0000     0.0000 n          1 34F      -0.023300
      3 O1          -0.6070     0.0000     1.0500 o          1 34F      -0.702100
      4 Cl1          3.6300    -2.2750    -6.7360 cl         1 34F      -0.113400
      5 C2           2.0800    -0.0010    -1.2690 c3         1 34F       0.009000
      6 O2           2.0550     0.0000     1.2270 oh         1 34F      -0.439100
      7 Cl2          0.5590    -2.2530    -7.2980 cl         1 34F      -0.120400
      8 C3           2.0120     1.3920    -1.8980 c3         1 34F      -0.005400
      9 C4           2.8820     1.4270    -3.1550 c3         1 34F       0.017400
     10 C6           2.3000     0.5040    -4.1940 ca         1 34F       0.069700
     11 C7           3.1260    -0.3520    -4.8980 ca         1 34F      -0.130000
     12 C8           2.5920    -1.2000    -5.8510 ca         1 34F      -0.001600
     13 C9           1.2310    -1.1900    -6.1010 ca         1 34F      -0.098600
     14 C10          0.4060    -0.3320    -5.3970 ca         1 34F      -0.100000
     15 C11          0.9400     0.5110    -4.4410 ca         1 34F      -0.112000
     16 PA1          2.9320     3.1270    -3.8130 p5         1 34F       0.411700
     17 OP1          3.6740     4.0890    -2.7560 o          1 34F      -0.712500
     18 OP2          3.7370     3.1400    -5.2060 o          1 34F      -0.712500
     19 OP3          1.5510     3.6110    -4.0350 o          1 34F      -0.712500
     20 H1          -0.5410    -0.0300    -0.9380 h5         1 34F      -0.004800
     21 H2           1.6350    -0.7240    -1.9420 h1         1 34F       0.019200
     22 H2A          3.1150    -0.2660    -1.0880 h1         1 34F       0.019200
     23 HO2          2.1600    -0.8870     1.5290 ho         1 34F       0.368000
     24 H3           2.3730     2.1260    -1.1880 hc         1 34F       0.038700
     25 H3A          0.9860     1.6190    -2.1620 hc         1 34F       0.038700
     26 H4           3.8860     1.1060    -2.9080 hc         1 34F       0.027700
     27 H7           4.1940    -0.3440    -4.7170 ha         1 34F       0.118000
     28 H10         -0.6600    -0.3260    -5.5890 ha         1 34F       0.087000
     29 H11          0.2930     1.1830    -3.8890 ha         1 34F       0.140000
@<TRIPOS>BOND
     1     1     2 1   
     2     1     3 2   
     3     1    20 1   
     4     2     5 1   
     5     2     6 1   
     6     4    12 1   
     7     5     8 1   
     8     5    21 1   
     9     5    22 1   
    10     6    23 1   
    11     7    13 1   
    12     8     9 1   
    13     8    24 1   
    14     8    25 1   
    15     9    10 1   
    16     9    16 1   
    17     9    26 1   
    18    10    11 ar  
    19    10    15 ar  
    20    11    12 ar  
    21    11    27 1   
    22    12    13 ar  
    23    13    14 ar  
    24    14    15 ar  
    25    14    28 1   
    26    15    29 1   
    27    16    17 1   
    28    16    18 1   
    29    16    19 1   
@<TRIPOS>SUBSTRUCTURE
     1 34F         1 TEMP              0 ****  ****    0 ROOT
