@<TRIPOS>MOLECULE
34G
   75    79     1     0     0
SMALL
bcc


@<TRIPOS>ATOM
      1 CAA          0.0000     0.0000     0.0000 c3         1 34G       0.000900
      2 CAJ          1.5300     0.0000     0.0000 c3         1 34G      -0.031400
      3 CBE          2.0400     0.0000     1.4420 c3         1 34G      -0.088700
      4 CAQ          1.6460     1.3110     2.1260 c3         1 34G       0.155800
      5 NBI          2.1580     1.3330     3.4970 n3         1 34G      -0.531600
      6 CAN          1.5340     0.2970     4.3310 c3         1 34G       0.134800
      7 CAM          1.7720     0.6500     5.8000 c3         1 34G       0.037900
      8 CAX          3.2280     0.9650     6.0270 ca         1 34G      -0.063300
      9 CAG          3.7020     0.9760     7.3310 ca         1 34G      -0.183000
     10 CAZ          5.0300     1.2620     7.5910 ca         1 34G       0.122100
     11 OAT          5.4900     1.2720     8.8710 os         1 34G      -0.293900
     12 CAC          4.5450     0.9760     9.9020 c3         1 34G       0.241700
     13 CBB          5.8940     1.5410     6.5370 ca         1 34G       0.115100
     14 OAV          7.2020     1.8240     6.7810 os         1 34G      -0.292900
     15 CAE          8.0290     2.1000     5.6490 c3         1 34G       0.241700
     16 CAI          5.4180     1.5270     5.2380 ca         1 34G      -0.176000
     17 CBD          4.0860     1.2380     4.9830 ca         1 34G      -0.078300
     18 CBH          3.6180     1.2260     3.5490 c3         1 34G       0.202800
     19 CAP          4.0670    -0.0820     2.8910 c3         1 34G      -0.075400
     20 CBF          3.5670    -0.1260     1.4460 c3         1 34G      -0.053700
     21 CAO          3.9720    -1.4550     0.8040 c3         1 34G      -0.039400
     22 CBG          5.4970    -1.5230     0.6950 c3         1 34G       0.179800
     23 NAR          5.9650    -0.4680    -0.2100 n7         1 34G      -0.582200
     24 CAK          7.4070    -0.6220    -0.4660 c3         1 34G       0.142800
     25 CAL          7.6120    -1.8480    -1.3560 c3         1 34G       0.037900
     26 CAW          6.8830    -3.0330    -0.7760 ca         1 34G      -0.066300
     27 CAF          7.2240    -4.3000    -1.2220 ca         1 34G      -0.182000
     28 CBC          5.8970    -2.8800     0.1760 ca         1 34G      -0.075300
     29 CAH          5.2470    -3.9970     0.6820 ca         1 34G      -0.184000
     30 CBA          5.5830    -5.2630     0.2390 ca         1 34G       0.117100
     31 OAU          4.9410    -6.3530     0.7390 os         1 34G      -0.292900
     32 CAD          3.9290    -6.1180     1.7190 c3         1 34G       0.240700
     33 CAY          6.5800    -5.4170    -0.7200 ca         1 34G       0.121100
     34 OAS          6.9190    -6.6580    -1.1600 os         1 34G      -0.292900
     35 CAB          7.9500    -6.7370    -2.1450 c3         1 34G       0.240700
     36 H1          -0.3610     1.0080     0.1650 hc         1 34G       0.002700
     37 H2          -0.3610    -0.6470     0.7900 hc         1 34G       0.002700
     38 H3          -0.3610    -0.3610    -0.9550 hc         1 34G       0.002700
     39 H4           1.8920     0.8840    -0.5110 hc         1 34G       0.023200
     40 H5           1.8910    -0.8850    -0.5110 hc         1 34G       0.023200
     41 H6           1.6090    -0.8330     1.9840 hc         1 34G       0.037700
     42 H7           2.0650     2.1430     1.5740 h1         1 34G       0.029200
     43 H8           0.5660     1.3940     2.1460 h1         1 34G       0.029200
     44 H10          0.4680     0.2850     4.1390 h1         1 34G       0.019200
     45 H11          2.0020    -0.6570     4.1170 h1         1 34G       0.019200
     46 H12          1.1850     1.5280     6.0450 hc         1 34G       0.025200
     47 H13          1.5010    -0.2030     6.4100 hc         1 34G       0.025200
     48 H14          3.0270     0.7600     8.1510 ha         1 34G       0.124000
     49 H15          4.1390    -0.0160     9.7450 h1         1 34G      -0.003633
     50 H16          3.7420     1.7030     9.8750 h1         1 34G      -0.003633
     51 H17          5.0370     1.0160    10.8660 h1         1 34G      -0.003633
     52 H18          7.6110     2.9280     5.0890 h1         1 34G      -0.004300
     53 H19          8.0780     1.2230     5.0150 h1         1 34G      -0.004300
     54 H20          9.0260     2.3590     5.9850 h1         1 34G      -0.004300
     55 H21          6.0890     1.7440     4.4160 ha         1 34G       0.122000
     56 H22          4.0580     2.0630     3.0210 h1         1 34G       0.039700
     57 H23          5.1490    -0.1350     2.8990 hc         1 34G       0.031200
     58 H24          3.6560    -0.9210     3.4400 hc         1 34G       0.031200
     59 H25          3.9980     0.6980     0.8910 hc         1 34G       0.039700
     60 H26          3.6170    -2.2750     1.4150 hc         1 34G       0.035200
     61 H27          3.5360    -1.5250    -0.1860 hc         1 34G       0.035200
     62 H28          5.9370    -1.3730     1.6730 h1         1 34G       0.016700
     63 H29          5.7940     0.4270     0.2040 hn         1 34G       0.256800
     64 H31          7.9170    -0.7800     0.4760 h1         1 34G       0.009200
     65 H32          7.7670     0.2570    -0.9880 h1         1 34G       0.009200
     66 H33          8.6700    -2.0760    -1.3930 hc         1 34G       0.025200
     67 H34          7.2060    -1.6370    -2.3380 hc         1 34G       0.025200
     68 H35          8.0010    -4.4170    -1.9680 ha         1 34G       0.124000
     69 H36          4.4770    -3.8760     1.4350 ha         1 34G       0.131000
     70 H37          4.3660    -5.6230     2.5780 h1         1 34G      -0.003967
     71 H38          3.1550    -5.4900     1.2960 h1         1 34G      -0.003967
     72 H39          3.4980    -7.0630     2.0280 h1         1 34G      -0.003967
     73 H40          8.1200    -7.7750    -2.4070 h1         1 34G      -0.003633
     74 H41          7.6500    -6.1860    -3.0280 h1         1 34G      -0.003633
     75 H42          8.8630    -6.3110    -1.7460 h1         1 34G      -0.003633
@<TRIPOS>BOND
     1     1     2 1   
     2     1    36 1   
     3     1    37 1   
     4     1    38 1   
     5     2     3 1   
     6     2    39 1   
     7     2    40 1   
     8     3     4 1   
     9     3    20 1   
    10     3    41 1   
    11     4     5 1   
    12     4    42 1   
    13     4    43 1   
    14     5     6 1   
    15     5    18 1   
    16     6     7 1   
    17     6    44 1   
    18     6    45 1   
    19     7     8 1   
    20     7    46 1   
    21     7    47 1   
    22     8     9 ar  
    23     8    17 ar  
    24     9    10 ar  
    25     9    48 1   
    26    10    11 1   
    27    10    13 ar  
    28    11    12 1   
    29    12    49 1   
    30    12    50 1   
    31    12    51 1   
    32    13    14 1   
    33    13    16 ar  
    34    14    15 1   
    35    15    52 1   
    36    15    53 1   
    37    15    54 1   
    38    16    17 ar  
    39    16    55 1   
    40    17    18 1   
    41    18    19 1   
    42    18    56 1   
    43    19    20 1   
    44    19    57 1   
    45    19    58 1   
    46    20    21 1   
    47    20    59 1   
    48    21    22 1   
    49    21    60 1   
    50    21    61 1   
    51    22    23 1   
    52    22    28 1   
    53    22    62 1   
    54    23    24 1   
    55    23    63 1   
    56    24    25 1   
    57    24    64 1   
    58    24    65 1   
    59    25    26 1   
    60    25    66 1   
    61    25    67 1   
    62    26    27 ar  
    63    26    28 ar  
    64    27    33 ar  
    65    27    68 1   
    66    28    29 ar  
    67    29    30 ar  
    68    29    69 1   
    69    30    31 1   
    70    30    33 ar  
    71    31    32 1   
    72    32    70 1   
    73    32    71 1   
    74    32    72 1   
    75    33    34 1   
    76    34    35 1   
    77    35    73 1   
    78    35    74 1   
    79    35    75 1   
@<TRIPOS>SUBSTRUCTURE
     1 34G         1 TEMP              0 ****  ****    0 ROOT
