@<TRIPOS>MOLECULE
molecule
   75    79     1     0     0
SMALL
bcc


@<TRIPOS>ATOM
      1 CAA          0.0000     0.0000     0.0000 c3         1 34G      -0.094100
      2 CAJ          1.5300     0.0000     0.0000 c3         1 34G      -0.081400
      3 CBE          2.0400     0.0000     1.4420 c3         1 34G      -0.107700
      4 CAQ          1.6460     1.3110     2.1260 c3         1 34G       0.171800
      5 NBI          2.1580     1.3330     3.4970 n3         1 34G      -0.721600
      6 CAN          1.5340     0.2970     4.3310 c3         1 34G       0.157800
      7 CAM          1.7720     0.6500     5.8000 c3         1 34G      -0.029100
      8 CAX          3.2280     0.9650     6.0270 ca         1 34G      -0.061300
      9 CAG          3.7020     0.9760     7.3310 ca         1 34G      -0.193000
     10 CAZ          5.0300     1.2620     7.5910 ca         1 34G       0.119100
     11 OAT          5.4900     1.2720     8.8710 os         1 34G      -0.313900
     12 CAC          4.5450     0.9760     9.9020 c3         1 34G       0.127700
     13 CBB          5.8940     1.5410     6.5370 ca         1 34G       0.114100
     14 OAV          7.2020     1.8240     6.7810 os         1 34G      -0.313900
     15 CAE          8.0290     2.1000     5.6490 c3         1 34G       0.128700
     16 CAI          5.4180     1.5270     5.2380 ca         1 34G      -0.188000
     17 CBD          4.0860     1.2380     4.9830 ca         1 34G      -0.071300
     18 CBH          3.6180     1.2260     3.5490 c3         1 34G       0.228800
     19 CAP          4.0670    -0.0820     2.8910 c3         1 34G      -0.115400
     20 CBF          3.5670    -0.1260     1.4460 c3         1 34G      -0.072700
     21 CAO          3.9720    -1.4550     0.8040 c3         1 34G      -0.070400
     22 CBG          5.4970    -1.5230     0.6950 c3         1 34G       0.214800
     23 NAR          5.9650    -0.4680    -0.2100 n7         1 34G      -0.811200
     24 CAK          7.4070    -0.6220    -0.4660 c3         1 34G       0.152800
     25 CAL          7.6120    -1.8480    -1.3560 c3         1 34G      -0.027100
     26 CAW          6.8830    -3.0330    -0.7760 ca         1 34G      -0.062300
     27 CAF          7.2240    -4.3000    -1.2220 ca         1 34G      -0.193000
     28 CBC          5.8970    -2.8800     0.1760 ca         1 34G      -0.071300
     29 CAH          5.2470    -3.9970     0.6820 ca         1 34G      -0.189000
     30 CBA          5.5830    -5.2630     0.2390 ca         1 34G       0.114100
     31 OAU          4.9410    -6.3530     0.7390 os         1 34G      -0.313900
     32 CAD          3.9290    -6.1180     1.7190 c3         1 34G       0.127700
     33 CAY          6.5800    -5.4170    -0.7200 ca         1 34G       0.119100
     34 OAS          6.9190    -6.6580    -1.1600 os         1 34G      -0.313900
     35 CAB          7.9500    -6.7370    -2.1450 c3         1 34G       0.127700
     36 H1          -0.3610     1.0080     0.1650 hc         1 34G       0.033700
     37 H2          -0.3610    -0.6470     0.7900 hc         1 34G       0.033700
     38 H3          -0.3610    -0.3610    -0.9550 hc         1 34G       0.033700
     39 H4           1.8920     0.8840    -0.5110 hc         1 34G       0.047700
     40 H5           1.8910    -0.8850    -0.5110 hc         1 34G       0.047700
     41 H6           1.6090    -0.8330     1.9840 hc         1 34G       0.053700
     42 H7           2.0650     2.1430     1.5740 h1         1 34G       0.057200
     43 H8           0.5660     1.3940     2.1460 h1         1 34G       0.057200
     44 H10          0.4680     0.2850     4.1390 h1         1 34G       0.040700
     45 H11          2.0020    -0.6570     4.1170 h1         1 34G       0.040700
     46 H12          1.1850     1.5280     6.0450 hc         1 34G       0.056700
     47 H13          1.5010    -0.2030     6.4100 hc         1 34G       0.056700
     48 H14          3.0270     0.7600     8.1510 ha         1 34G       0.140000
     49 H15          4.1390    -0.0160     9.7450 h1         1 34G       0.040033
     50 H16          3.7420     1.7030     9.8750 h1         1 34G       0.040033
     51 H17          5.0370     1.0160    10.8660 h1         1 34G       0.040033
     52 H18          7.6110     2.9280     5.0890 h1         1 34G       0.039367
     53 H19          8.0780     1.2230     5.0150 h1         1 34G       0.039367
     54 H20          9.0260     2.3590     5.9850 h1         1 34G       0.039367
     55 H21          6.0890     1.7440     4.4160 ha         1 34G       0.137000
     56 H22          4.0580     2.0630     3.0210 h1         1 34G       0.069700
     57 H23          5.1490    -0.1350     2.8990 hc         1 34G       0.050700
     58 H24          3.6560    -0.9210     3.4400 hc         1 34G       0.050700
     59 H25          3.9980     0.6980     0.8910 hc         1 34G       0.055700
     60 H26          3.6170    -2.2750     1.4150 hc         1 34G       0.057200
     61 H27          3.5360    -1.5250    -0.1860 hc         1 34G       0.057200
     62 H28          5.9370    -1.3730     1.6730 h1         1 34G       0.031700
     63 H29          5.7940     0.4270     0.2040 hn         1 34G       0.353800
     64 H31          7.9170    -0.7800     0.4760 h1         1 34G       0.036700
     65 H32          7.7670     0.2570    -0.9880 h1         1 34G       0.036700
     66 H33          8.6700    -2.0760    -1.3930 hc         1 34G       0.057200
     67 H34          7.2060    -1.6370    -2.3380 hc         1 34G       0.057200
     68 H35          8.0010    -4.4170    -1.9680 ha         1 34G       0.140000
     69 H36          4.4770    -3.8760     1.4350 ha         1 34G       0.142000
     70 H37          4.3660    -5.6230     2.5780 h1         1 34G       0.039367
     71 H38          3.1550    -5.4900     1.2960 h1         1 34G       0.039367
     72 H39          3.4980    -7.0630     2.0280 h1         1 34G       0.039367
     73 H40          8.1200    -7.7750    -2.4070 h1         1 34G       0.039700
     74 H41          7.6500    -6.1860    -3.0280 h1         1 34G       0.039700
     75 H42          8.8630    -6.3110    -1.7460 h1         1 34G       0.039700
@<TRIPOS>BOND
     1     1     2 1
     2     6     7 1
     3     6     5 1
     4     7     8 1
     5     2     3 1
     6     5     4 1
     7     5    18 1
     8     4     3 1
     9     8     9 ar
    10     8    17 ar
    11     3    20 1
    12    18    17 1
    13    18    19 1
    14    20    21 1
    15    20    19 1
    16    24    23 1
    17    24    25 1
    18     9    10 ar
    19    23    22 1
    20    17    16 ar
    21    25    26 1
    22    22    21 1
    23    22    28 1
    24    10    11 1
    25    10    13 ar
    26    16    13 ar
    27    26    28 ar
    28    26    27 ar
    29    12    11 1
    30    28    29 ar
    31    13    14 1
    32    27    33 ar
    33    29    30 ar
    34    14    15 1
    35    33    30 ar
    36    33    34 1
    37    30    31 1
    38    35    34 1
    39    31    32 1
    40     1    36 1
    41     1    37 1
    42     1    38 1
    43     2    39 1
    44     2    40 1
    45     3    41 1
    46     4    42 1
    47     4    43 1
    48     6    44 1
    49     6    45 1
    50     7    46 1
    51     7    47 1
    52     9    48 1
    53    12    49 1
    54    12    50 1
    55    12    51 1
    56    15    52 1
    57    15    53 1
    58    15    54 1
    59    16    55 1
    60    18    56 1
    61    19    57 1
    62    19    58 1
    63    20    59 1
    64    21    60 1
    65    21    61 1
    66    22    62 1
    67    23    63 1
    68    24    64 1
    69    24    65 1
    70    25    66 1
    71    25    67 1
    72    27    68 1
    73    29    69 1
    74    32    70 1
    75    32    71 1
    76    32    72 1
    77    35    73 1
    78    35    74 1
    79    35    75 1
@<TRIPOS>SUBSTRUCTURE
     1 34G         1 TEMP              0 ****  ****    0 ROOT
