@<TRIPOS>MOLECULE
molecule
   22    22     1     0     0
SMALL
bcc


@<TRIPOS>ATOM
      1 O4           0.0000     0.0000     0.0000 oh         1 34H      -0.617800
      2 C9           2.3800    -0.5940    -3.0970 ca         1 34H      -0.113000
      3 C8           2.0160    -0.5370    -4.4280 ca         1 34H      -0.160500
      4 C7           0.8060    -1.0770    -4.8390 ca         1 34H       0.068100
      5 C6          -0.0330    -1.6790    -3.9120 ca         1 34H      -0.160500
      6 C5           0.3350    -1.7320    -2.5820 ca         1 34H      -0.113000
      7 C4           1.5400    -1.1890    -2.1740 ca         1 34H      -0.058300
      8 C3           1.9390    -1.2490    -0.7220 c3         1 34H      -0.021100
      9 C2           1.4290     0.0000     0.0000 c3         1 34H       0.045100
     10 C1           1.9320     0.0000     1.4200 c          1 34H       0.867600
     11 O2           3.2480     0.1060     1.6660 o          1 34H      -0.839800
     12 O1           1.1520    -0.0920     2.3370 o          1 34H      -0.839800
     13 H8           2.6730    -0.0690    -5.1510 ha         1 34H       0.123500
     14 H6          -0.9780    -2.1030    -4.2310 ha         1 34H       0.123500
     15 H5          -0.3200    -2.2000    -1.8570 ha         1 34H       0.141500
     16 HO3          0.7610    -1.7900    -6.5940 ho         1 34H       0.402000
     17 H31          3.0190    -1.2950    -0.6460 hc         1 34H       0.065200
     18 H32          1.5080    -2.1320    -0.2650 hc         1 34H       0.065200
     19 H4          -0.3140     0.8750     0.1560 ho         1 34H       0.391000
     20 H2           1.7900     0.8850    -0.5110 h1         1 34H       0.019700
     21 O3           0.4450    -1.0220    -6.1490 oh         1 34H      -0.532100
     22 H9           3.3240    -0.1700    -2.7760 ha         1 34H       0.141500
@<TRIPOS>BOND
     1    10    12 1
     2    10     9 1
     3    10    11 1
     4     9     1 1
     5     9     8 1
     6     8     7 1
     7     7     2 ar
     8     7     6 ar
     9     4     3 ar
    10     4     5 ar
    11     4    21 1
    12     2     3 ar
    13     6     5 ar
    14     9    20 1
    15     1    19 1
    16     8    17 1
    17     8    18 1
    18     2    22 1
    19     6    15 1
    20     3    13 1
    21     5    14 1
    22    21    16 1
@<TRIPOS>SUBSTRUCTURE
     1 34H         1 TEMP              0 ****  ****    0 ROOT
