@<TRIPOS>MOLECULE
34H
   22    20     1     0     0
SMALL
bcc


@<TRIPOS>ATOM
      1 O4          2.3120    3.0710    0.5240 oh        1 34H     -0.465000
      2 C9          0.8360   -1.3730   -2.5680 c2        1 34H      0.051000
      3 C8          0.8080   -0.3290   -3.5480 c2        1 34H     -0.220000
      4 C7          0.3220   -0.5930   -4.7950 c2        1 34H      0.039000
      5 C6         -0.1850   -1.9430   -5.1710 c3        1 34H     -0.205000
      6 C5         -0.1340   -2.9730   -4.1300 c1        1 34H     -0.151000
      7 C4          0.3780   -2.6360   -2.8710 c2        1 34H     -0.291000
      8 C3          3.0000   -2.7500    1.2770 c1        1 34H     -0.314000
      9 C2          2.8380   -1.5790    1.0850 c1        1 34H     -0.130000
     10 C1          2.6420   -0.1460    0.8530 c2        1 34H      0.416000
     11 O2          3.1170    0.6810    1.6820 o         1 34H     -0.566500
     12 O1          1.9980    0.2190   -0.1790 o         1 34H     -0.566500
     13 H8          1.1810    0.6670   -3.2650 ha        1 34H      0.172000
     14 H6         -1.2600   -1.8590   -5.5000 hc        1 34H      0.138000
     15 H5          0.4050   -2.3320   -6.0500 hc        1 34H      0.138000
     16 HO3        -0.0700    0.0610   -6.5410 ho        1 34H      0.206000
     17 H31         0.4100   -3.4230   -2.1010 ha        1 34H      0.142000
     18 H32         3.1430   -3.7840    1.4450 ha        1 34H      0.190000
     19 H4          2.0320    2.2870    0.0350 ho        1 34H      0.223000
     20 H2          2.7930    2.6880    1.2670 ho        1 34H      0.223000
     21 O3          0.3040    0.4200   -5.7240 oh        1 34H     -0.250000
     22 H9          1.2420   -1.1080   -1.5630 ha        1 34H      0.220000
@<TRIPOS>BOND
     1    1   19 1   
     2    1   20 1   
     3    2    3 1   
     4    2    7 1   
     5    2   22 1   
     6    3    4 1   
     7    3   13 1   
     8    4    5 1   
     9    4   21 1   
    10    5    6 1   
    11    5   14 1   
    12    5   15 1   
    13    6    7 1   
    14    7   17 1   
    15    8    9 1   
    16    8   18 1   
    17    9   10 1   
    18   10   11 1   
    19   10   12 1   
    20   16   21 1   
@<TRIPOS>SUBSTRUCTURE
     1 34H         1 TEMP              0 ****  ****    0 ROOT
