@<TRIPOS>MOLECULE
34I
   41    44     1     0     0
SMALL
bcc


@<TRIPOS>ATOM
      1 C1           0.0000     0.0000     0.0000 ca         1 34I      -0.136000
      2 C2           1.3890     0.0000     0.0000 ca         1 34I      -0.061400
      3 C3           2.0800     0.0000     1.2050 ca         1 34I      -0.120300
      4 C4           1.3870     0.0000     2.3970 ca         1 34I      -0.071000
      5 C5           0.0050     0.0010     2.3950 ca         1 34I      -0.118000
      6 C6          -0.6880     0.0010     1.1980 ca         1 34I      -0.071000
      7 C7           3.5870    -0.0010     1.2030 c3         1 34I       0.008900
      8 C8           4.0970    -0.8050     0.0080 c3         1 34I      -0.075400
      9 C9           3.3850    -0.3690    -1.2440 c          1 34I       0.621500
     10 N10          2.0920    -0.0010    -1.2090 n          1 34I       0.051000
     11 C11          1.4150     0.4020    -2.4440 c3         1 34I      -0.043000
     12 C12          0.7930    -0.8070    -3.0940 c          1 34I       0.526100
     13 O13          0.9040    -1.8980    -2.5760 o          1 34I      -0.596100
     14 N14          0.1130    -0.6760    -4.2500 ns         1 34I       0.022900
     15 C15         -0.4600    -1.7910    -4.8500 cc         1 34I       0.078500
     16 S16         -0.3850    -3.4250    -4.2090 ss         1 34I      -0.136800
     17 C17         -1.3180    -4.0650    -5.5520 cc         1 34I      -0.001100
     18 C18         -1.6490    -3.0840    -6.4110 cd         1 34I       0.023000
     19 C19         -1.1660    -1.7740    -6.0140 cd         1 34I      -0.238500
     20 C20         -1.4110    -0.5470    -6.7940 cd         1 34I       0.361000
     21 N21         -2.1060    -0.4640    -7.9600 na         1 34I       0.301600
     22 N22         -2.0810     0.8900    -8.3340 nd         1 34I      -0.678800
     23 C23         -1.4040     1.5290    -7.4170 cc         1 34I       0.614900
     24 N24         -1.0020     0.6690    -6.4850 nc         1 34I      -0.744000
     25 C25         -2.4110    -3.3100    -7.6030 ch         1 34I       0.239800
     26 O26          3.9850    -0.3490    -2.2990 o          1 34I      -0.677500
     27 N27         -3.0290    -3.4970    -8.5380 n1         1 34I      -0.374800
     28 H1          -0.5420     0.0000    -0.9380 ha         1 34I       0.111000
     29 H4           1.9270     0.0000     3.3370 ha         1 34I       0.106000
     30 H5          -0.5380     0.0020     3.3330 ha         1 34I       0.106000
     31 H6          -1.7710     0.0010     1.2000 ha         1 34I       0.104000
     32 H7           3.9160     0.9380     1.6320 hc         1 34I       0.033200
     33 H7A          3.9150    -0.8020     1.8540 hc         1 34I       0.033200
     34 H8           4.0800    -1.8570     0.2640 hc         1 34I       0.047700
     35 H8A          5.1170    -0.5070    -0.2020 hc         1 34I       0.047700
     36 H11          0.7170     1.2030    -2.2280 h1         1 34I       0.061700
     37 H11A         2.1490     0.7460    -3.1620 h1         1 34I       0.061700
     38 HN14         0.0280     0.2230    -4.6820 hn         1 34I       0.221500
     39 H17         -1.6020    -5.1010    -5.6940 h4         1 34I       0.160000
     40 H23         -1.1970     2.5920    -7.4040 h5         1 34I       0.023100
     41 HN21        -2.5440    -1.2250    -8.4400 hn         1 34I       0.179700
@<TRIPOS>BOND
     1     1     2 ar  
     2     1     6 ar  
     3     1    28 1   
     4     2     3 ar  
     5     2    10 1   
     6     3     4 ar  
     7     3     7 1   
     8     4     5 ar  
     9     4    29 1   
    10     5     6 ar  
    11     5    30 1   
    12     6    31 1   
    13     7     8 1   
    14     7    32 1   
    15     7    33 1   
    16     8     9 1   
    17     8    34 1   
    18     8    35 1   
    19     9    10 1   
    20     9    26 2   
    21    10    11 1   
    22    11    12 1   
    23    11    36 1   
    24    11    37 1   
    25    12    13 2   
    26    12    14 1   
    27    14    15 1   
    28    14    38 1   
    29    15    16 1   
    30    15    19 2   
    31    16    17 1   
    32    17    18 2   
    33    17    39 1   
    34    18    19 1   
    35    18    25 1   
    36    19    20 1   
    37    20    21 1   
    38    20    24 2   
    39    21    22 1   
    40    21    41 1   
    41    22    23 2   
    42    23    24 1   
    43    23    40 1   
    44    25    27 3   
@<TRIPOS>SUBSTRUCTURE
     1 34I         1 TEMP              0 ****  ****    0 ROOT
