@<TRIPOS>MOLECULE
34J
   45    44     1     0     0
SMALL
bcc


@<TRIPOS>ATOM
      1 C10         1.5210   -0.2270   -1.6160 c2        1 34J     -0.162000
      2 C13         1.8590   -0.2260    1.9880 ca        1 34J      0.016000
      3 C15         2.7490    0.1620    4.2110 ca        1 34J     -0.120000
      4 C20         1.0600   -1.2590    2.4950 ca        1 34J     -0.094000
      5 C21         2.0840    1.4050    0.0810 c2        1 34J     -0.494000
      6 C26        -0.9750   -2.6990   -2.8690 c1        1 34J     -0.170000
      7 C02        -2.1790   -4.7550   -3.5030 c2        1 34J      0.271000
      8 C03        -2.7220   -4.7880   -2.1400 c2        1 34J     -0.256000
      9 C04        -2.4160   -3.8510   -1.2200 c2        1 34J     -0.034000
     10 C05        -1.5130   -2.7220   -1.5230 c3        1 34J     -0.187000
     11 C06        -3.6800    0.4810   -1.1350 c1        1 34J     -0.228000
     12 C07        -2.7520    0.5680   -1.8850 c1        1 34J     -0.228000
     13 N08         0.6300   -0.2270   -3.7820 n3        1 34J     -0.259000
     14 N09         1.3950   -0.9020   -2.8600 nh        1 34J     -0.159000
     15 N11         1.4710   -0.8090   -0.4000 n2        1 34J     -0.180000
     16 C12         1.8130    0.1280    0.5730 c2        1 34J     -0.036000
     17 C14         2.7070    0.4770    2.8570 ca        1 34J     -0.112000
     18 C16         1.9460   -0.8640    4.7210 ca        1 34J     -0.062000
     19 C18         1.1010   -1.5760    3.8560 ca        1 34J     -0.066000
     20 S22         1.9430    1.4610   -1.5740 ss        1 34J      0.552000
     21 C23        -6.5690    1.4500    2.0630 c1        1 34J      0.419000
     22 O24        -7.0610    2.1840    2.8570 o         1 34J     -0.209000
     23 O25        -6.0790    0.7110    1.2680 o         1 34J     -0.209000
     24 C27        -1.3030   -3.6560   -3.8080 c2        1 34J     -0.303000
     25 N28        -0.6980   -3.4970   -5.1470 no        1 34J      0.592000
     26 O29        -0.8400   -4.3640   -5.9820 o         1 34J     -0.391500
     27 O30        -0.0710   -2.5070   -5.4070 o         1 34J     -0.391500
     28 H151        3.4180    0.7190    4.8840 ha        1 34J      0.151000
     29 H201        0.3980   -1.8270    1.8230 ha        1 34J      0.159000
     30 H211        2.3400    2.2660    0.6940 h4        1 34J      0.177000
     31 H011       -3.1440   -6.4570   -4.0530 hn        1 34J      0.260500
     32 H012       -2.1820   -5.7640   -5.2870 hn        1 34J      0.260500
     33 H062       -4.5040    0.4150   -0.4680 ha        1 34J      0.229500
     34 H061       -2.0580   -1.7380   -1.3570 hc        1 34J      0.183500
     35 H1         -1.9240    0.6480   -2.5490 ha        1 34J      0.229500
     36 H2          1.1070   -0.3350   -4.6700 hn        1 34J      0.163000
     37 H091        1.0600   -1.8580   -2.7130 hn        1 34J      0.204000
     38 H141        3.3500    1.2800    2.4650 ha        1 34J      0.145000
     39 CL17        2.0160   -1.2240    6.3770 cl        1 34J      0.005000
     40 CL19        0.1140   -2.8320    4.4350 cl        1 34J     -0.004000
     41 H261       -0.6430   -2.7100   -0.7960 hc        1 34J      0.183500
     42 N01        -2.5340   -5.7310   -4.3510 n3        1 34J     -0.297000
     43 H031       -3.4000   -5.6200   -1.8840 ha        1 34J      0.143000
     44 H082       -0.2780   -0.6780   -3.8820 hn        1 34J      0.163000
     45 H041       -2.8390   -3.9030   -0.2030 ha        1 34J      0.146000
@<TRIPOS>BOND
     1    1   14 1   
     2    1   15 1   
     3    1   20 1   
     4    2    4 1   
     5    2   16 1   
     6    2   17 1   
     7    3   17 1   
     8    3   18 1   
     9    3   28 1   
    10    4   19 1   
    11    4   29 1   
    12    5   16 1   
    13    5   20 1   
    14    5   30 1   
    15    6   10 1   
    16    6   24 1   
    17    7    8 1   
    18    7   24 1   
    19    7   42 1   
    20    8    9 1   
    21    8   43 1   
    22    9   10 1   
    23    9   45 1   
    24   10   34 1   
    25   10   41 1   
    26   11   12 1   
    27   11   33 1   
    28   12   35 1   
    29   13   14 1   
    30   13   36 1   
    31   13   44 1   
    32   14   37 1   
    33   15   16 1   
    34   17   38 1   
    35   18   19 1   
    36   18   39 1   
    37   19   40 1   
    38   21   22 1   
    39   21   23 1   
    40   24   25 1   
    41   25   26 1   
    42   25   27 1   
    43   31   42 1   
    44   32   42 1   
@<TRIPOS>SUBSTRUCTURE
     1 34J         1 TEMP              0 ****  ****    0 ROOT
