@<TRIPOS>MOLECULE
34K
   40    41     1     0     0
SMALL
bcc


@<TRIPOS>ATOM
      1 C15         0.1290    0.3680    0.1940 ce        1 34K     -0.146100
      2 C17         0.2580    0.9120    2.5940 c1        1 34K     -0.027100
      3 C20         2.7330    0.3750    0.0360 c2        1 34K     -0.235100
      4 C21         1.4400    0.3710    0.1140 c1        1 34K     -0.030800
      5 C22        -0.1830   -0.2250   -2.2340 cd        1 34K     -0.308400
      6 C24        -5.8880   -0.0620   -5.5840 c         1 34K      0.853300
      7 C28        -8.0120   -3.5510   -3.0780 c3        1 34K     -0.037000
      8 C01        -9.1290   -3.2600   -2.1090 c2        1 34K     -0.166300
      9 C02        -8.8120   -2.2590   -1.3070 c1        1 34K      0.023200
     10 C03        -7.9070   -1.2750   -1.3510 ce        1 34K     -0.161200
     11 N04        -7.3640   -0.5910   -0.1700 no        1 34K      0.308100
     12 O05        -8.0120   -0.5810    0.8450 o         1 34K     -0.219500
     13 O06        -6.2990   -0.0320   -0.2340 o         1 34K     -0.219500
     14 C07        -7.3270   -1.1360   -2.7090 ce        1 34K     -0.075200
     15 C08        -6.7630    0.1460   -3.1980 c3        1 34K     -0.111500
     16 C09        -5.5490   -0.0730   -4.0620 ce        1 34K      0.316300
     17 N10        -4.3220   -0.2710   -3.6910 n2        1 34K     -0.469400
     18 C12        -2.6020   -0.2070   -2.1170 cd        1 34K      0.657300
     19 N13        -2.0930    0.1040   -0.9040 nc        1 34K     -0.718000
     20 C14        -0.7010    0.0810   -0.9760 cc        1 34K      0.404100
     21 C16        -0.5970    0.6560    1.4720 c3        1 34K      0.033900
     22 C18         0.9440    1.1310    3.5540 c1        1 34K     -0.114200
     23 S23        -1.3910   -0.4980   -3.3420 ss        1 34K     -0.031300
     24 O25        -6.1590   -1.1820   -6.0920 o         1 34K     -0.798800
     25 O26        -5.9240    1.0560   -6.1460 o         1 34K     -0.798800
     26 C27        -7.3180   -2.2730   -3.4550 c2        1 34K     -0.129200
     27 BR1         1.9400    1.4490    4.9440 br        1 34K     -0.028800
     28 H171       -1.2710    1.5480    1.3110 hc        1 34K      0.097200
     29 H201        3.3360   -0.5270    0.2130 ha        1 34K      0.123500
     30 H211        3.3040    1.2830   -0.2080 ha        1 34K      0.123500
     31 H221        0.8780   -0.2730   -2.4650 h4        1 34K      0.171000
     32 H281       -7.2550   -4.2810   -2.6870 hc        1 34K      0.085700
     33 H011       -8.4800   -3.9990   -3.9970 hc        1 34K      0.085700
     34 H021      -10.0980   -3.7560   -2.2030 ha        1 34K      0.155000
     35 H081       -7.5430    0.6620   -3.8280 hc        1 34K      0.073200
     36 H082       -6.5260    0.8390   -2.3470 hc        1 34K      0.073200
     37 H111       -4.5870   -0.0440   -1.6770 hn        1 34K      0.422800
     38 H161       -1.2660   -0.2220    1.7130 hc        1 34K      0.097200
     39 H271       -6.7760   -2.2880   -4.4310 ha        1 34K      0.231000
     40 N11        -3.9650   -0.4110   -2.3890 nh        1 34K     -0.507000
@<TRIPOS>BOND
     1    1    4 2   
     2    1   20 1   
     3    1   21 1   
     4    2   21 1   
     5    2   22 3   
     6    3    4 2   
     7    3   29 1   
     8    3   30 1   
     9    5   20 2   
    10    5   23 1   
    11    5   31 1   
    12    6   16 1   
    13    6   24 1   
    14    6   25 1   
    15    7    8 1   
    16    7   26 1   
    17    7   32 1   
    18    7   33 1   
    19    8    9 2   
    20    8   34 1   
    21    9   10 2   
    22   10   11 1   
    23   10   14 1   
    24   11   12 1   
    25   11   13 1   
    26   14   15 1   
    27   14   26 2   
    28   15   16 1   
    29   15   35 1   
    30   15   36 1   
    31   16   17 2   
    32   17   40 1   
    33   18   19 2   
    34   18   23 1   
    35   18   40 1   
    36   19   20 1   
    37   21   28 1   
    38   21   38 1   
    39   22   27 1   
    40   26   39 1   
    41   37   40 1   
@<TRIPOS>SUBSTRUCTURE
     1 34K         1 TEMP              0 ****  ****    0 ROOT
