@<TRIPOS>MOLECULE
34L
   27    30     1     0     0
SMALL
bcc


@<TRIPOS>ATOM
      1 C01          0.0000     0.0000     0.0000 ca         1 34L       0.037900
      2 C02          1.3970     0.0000     0.0000 ca         1 34L       0.036400
      3 C03          2.0720     0.0000     1.2410 ca         1 34L      -0.002000
      4 C04          1.3830     0.0000     2.4140 ca         1 34L      -0.117000
      5 C05         -0.0120     0.0000     2.4280 ca         1 34L      -0.080400
      6 C06         -0.7020     0.0060     1.2130 ca         1 34L      -0.072800
      7 N07         -0.9270     0.0070     3.4750 ns         1 34L       0.003900
      8 C08         -2.1920     0.0170     3.0180 c          1 34L       0.615700
      9 C09         -2.1420     0.0050     1.5490 cc         1 34L      -0.166400
     10 C10         -3.2090     0.0090     0.6720 cf         1 34L       0.109800
     11 C11         -4.5300     0.0490     1.1690 cd         1 34L      -0.453400
     12 C12         -6.4590     0.7540     1.9460 cd         1 34L       0.210400
     13 N13         -5.2490     1.1750     1.5300 na         1 34L       0.294100
     14 C14         -5.3710    -1.0280     1.3870 cc         1 34L       0.370200
     15 N15         -6.5210    -0.5510     1.8580 nc         1 34L      -0.615000
     16 O16         -3.2000     0.0250     3.7010 o          1 34L      -0.636500
     17 N17          1.8980    -0.0000    -1.2500 nc         1 34L      -0.432100
     18 C18          1.0710     0.0000    -2.2260 cd         1 34L       0.407100
     19 S19         -0.5440     0.0000    -1.6750 ss         1 34L      -0.210100
     20 H1           3.1550    -0.0000     1.2590 ha         1 34L       0.116000
     21 H2           1.9260     0.0000     3.3520 ha         1 34L       0.111000
     22 H3          -0.6770     0.0120     4.4440 hn         1 34L       0.180500
     23 H4          -3.0330    -0.0620    -0.3940 ha         1 34L       0.117000
     24 H5          -7.2570     1.3960     2.2980 h5         1 34L       0.021100
     25 H6          -4.9300     2.1230     1.4910 hn         1 34L       0.117700
     26 H7          -5.1350    -2.0710     1.2100 h4         1 34L       0.004100
     27 H9           1.3600     0.0000    -3.2700 h5         1 34L       0.032800
@<TRIPOS>BOND
     1     1     2 ar  
     2     1     6 ar  
     3     1    19 1   
     4     2     3 ar  
     5     2    17 1   
     6     3     4 ar  
     7     3    20 1   
     8     4     5 ar  
     9     4    21 1   
    10     5     6 ar  
    11     5     7 1   
    12     6     9 1   
    13     7     8 1   
    14     7    22 1   
    15     8     9 1   
    16     8    16 2   
    17     9    10 2   
    18    10    11 1   
    19    10    23 1   
    20    11    13 1   
    21    11    14 2   
    22    12    13 1   
    23    12    15 2   
    24    12    24 1   
    25    13    25 1   
    26    14    15 1   
    27    14    26 1   
    28    17    18 2   
    29    18    19 1   
    30    18    27 1   
@<TRIPOS>SUBSTRUCTURE
     1 34L         1 TEMP              0 ****  ****    0 ROOT
