@<TRIPOS>MOLECULE
molecule
   27    30     1     0     0
SMALL
bcc


@<TRIPOS>ATOM
      1 C01          0.0000     0.0000     0.0000 ca         1 34L      -0.000100
      2 C02          1.3970     0.0000     0.0000 ca         1 34L       0.087400
      3 C03          2.0720     0.0000     1.2410 ca         1 34L      -0.030000
      4 C04          1.3830     0.0000     2.4140 ca         1 34L      -0.154000
      5 C05         -0.0120     0.0000     2.4280 ca         1 34L       0.078600
      6 C06         -0.7020     0.0060     1.2130 ca         1 34L      -0.094800
      7 N07         -0.9270     0.0070     3.4750 ns         1 34L      -0.455100
      8 C08         -2.1920     0.0170     3.0180 c          1 34L       0.707700
      9 C09         -2.1420     0.0050     1.5490 cc         1 34L      -0.137400
     10 C10         -3.2090     0.0090     0.6720 ce         1 34L       0.033800
     11 C11         -4.5300     0.0490     1.1690 cc         1 34L      -0.251400
     12 C12         -6.4590     0.7540     1.9460 cc         1 34L       0.409400
     13 N13         -5.2490     1.1750     1.5300 na         1 34L      -0.270900
     14 C14         -5.3710    -1.0280     1.3870 cd         1 34L       0.361200
     15 N15         -6.5210    -0.5510     1.8580 nd         1 34L      -0.696000
     16 O16         -3.2000     0.0250     3.7010 o          1 34L      -0.584500
     17 N17          1.8980    -0.0000    -1.2500 nd         1 34L      -0.562100
     18 C18          1.0710     0.0000    -2.2260 cc         1 34L       0.397100
     19 S19         -0.5440     0.0000    -1.6750 ss         1 34L      -0.112100
     20 H1           3.1550    -0.0000     1.2590 ha         1 34L       0.153000
     21 H2           1.9260     0.0000     3.3520 ha         1 34L       0.142000
     22 H3          -0.6770     0.0120     4.4440 hn         1 34L       0.345500
     23 H4          -3.0330    -0.0620    -0.3940 ha         1 34L       0.149000
     24 H5          -7.2570     1.3960     2.2980 h5         1 34L       0.064100
     25 H6          -4.9300     2.1230     1.4910 hn         1 34L       0.301700
     26 H7          -5.1350    -2.0710     1.2100 h4         1 34L       0.046100
     27 H9           1.3600     0.0000    -3.2700 h5         1 34L       0.071800
@<TRIPOS>BOND
     1    12    15 2   
     2    12    13 1   
     3    15    14 1   
     4    13    11 1   
     5    14    11 2   
     6    16     8 2   
     7    11    10 1   
     8     8     7 1   
     9     8     9 1   
    10    10     9 2   
    11     7     5 1   
    12     9     6 1   
    13     5     6 ar  
    14     5     4 ar  
    15     6     1 ar  
    16     4     3 ar  
    17     1    19 1   
    18     1     2 ar  
    19    19    18 1   
    20     3     2 ar  
    21     2    17 1   
    22    18    17 2   
    23     3    20 1   
    24     4    21 1   
    25     7    22 1   
    26    10    23 1   
    27    12    24 1   
    28    13    25 1   
    29    14    26 1   
    30    18    27 1   
@<TRIPOS>SUBSTRUCTURE
     1 34L         1 TEMP              0 ****  ****    0 ROOT
