@<TRIPOS>MOLECULE
34M
   48    51     1     0     0
SMALL
bcc


@<TRIPOS>ATOM
      1 S1          0.2740   -0.3580   -0.3520 ss        1 34M     -0.158400
      2 C2          2.0400   -0.1590   -0.3870 c3        1 34M     -0.066600
      3 C5          2.5110   -0.2590    1.0000 cc        1 34M      0.501700
      4 N6          2.5340   -1.2440    1.8930 nd        1 34M     -0.667000
      5 C7          3.1590   -0.6600    3.0400 cd        1 34M      0.600500
      6 N8          3.4860    0.6400    2.7890 nc        1 34M     -0.369300
      7 O9          3.1060    0.9120    1.5650 os        1 34M     -0.130100
      8 C10         3.3960   -1.3850    4.2830 ca        1 34M     -0.174500
      9 C11         3.9260   -0.7140    5.3980 ca        1 34M     -0.054500
     10 C13         4.1570   -1.3930    6.5860 ca        1 34M     -0.193500
     11 C15         3.8550   -2.7670    6.6670 ca        1 34M      0.146100
     12 C16         3.3260   -3.4450    5.5620 ca        1 34M     -0.193500
     13 C18         3.0990   -2.7510    4.3760 ca        1 34M     -0.054500
     14 O20         4.1210   -3.3480    7.8880 os        1 34M     -0.323900
     15 C21         3.8320   -4.7370    8.0020 c3        1 34M      0.111700
     16 C25        -0.1450    0.0290   -1.9400 cc        1 34M      0.413800
     17 N26        -1.4680    0.1420   -2.4070 na        1 34M     -0.241800
     18 C27        -1.3470    0.4520   -3.7820 cc        1 34M      0.379800
     19 N28        -0.0120    0.5210   -4.0780 nd        1 34M     -0.339000
     20 N29         0.6940    0.2710   -3.0010 nd        1 34M     -0.366000
     21 C30        -2.4890    0.6820   -4.6950 c3        1 34M     -0.120400
     22 C34        -2.6570   -0.0540   -1.6690 ca        1 34M     -0.060200
     23 C35        -3.0220    0.8540   -0.6500 ca        1 34M     -0.077500
     24 C37        -4.1910    0.6630    0.0700 ca        1 34M     -0.178000
     25 C39        -5.0190   -0.4380   -0.2210 ca        1 34M      0.143100
     26 C40        -4.6690   -1.3430   -1.2290 ca        1 34M     -0.178000
     27 C42        -3.4930   -1.1530   -1.9480 ca        1 34M     -0.077500
     28 O44        -6.1570   -0.5270    0.5510 os        1 34M     -0.319900
     29 C45        -7.0020   -1.6470    0.3050 c3        1 34M      0.110700
     30 H2          2.5150   -0.9580   -1.0150 h1        1 34M      0.121200
     31 H2A         2.3330    0.8340   -0.8190 h1        1 34M      0.121200
     32 H11         4.1640    0.3610    5.3420 ha        1 34M      0.155000
     33 H13         4.5720   -0.8780    7.4640 ha        1 34M      0.148500
     34 H16         3.0880   -4.5170    5.6160 ha        1 34M      0.148500
     35 H18         2.6830   -3.2950    3.5120 ha        1 34M      0.155000
     36 H21         4.4440   -5.3270    7.2780 h1        1 34M      0.047033
     37 H21A        2.7430   -4.9280    7.8430 h1        1 34M      0.047033
     38 H21B        4.1260   -4.9770    9.0560 h1        1 34M      0.047033
     39 H30        -3.3330   -0.0100   -4.4530 hc        1 34M      0.063367
     40 H30A       -2.8460    1.7380   -4.5910 hc        1 34M      0.063367
     41 H30B       -2.1700    0.5130   -5.7530 hc        1 34M      0.063367
     42 H35        -2.3770    1.7170   -0.4150 ha        1 34M      0.152500
     43 H37        -4.4820    1.3620    0.8690 ha        1 34M      0.153000
     44 H40        -5.3080   -2.2070   -1.4620 ha        1 34M      0.153000
     45 H42        -3.2230   -1.8740   -2.7370 ha        1 34M      0.152500
     46 H45        -7.8310   -1.5120    1.0460 h1        1 34M      0.048700
     47 H45A       -6.4550   -2.6030    0.4930 h1        1 34M      0.048700
     48 H45B       -7.3980   -1.6190   -0.7400 h1        1 34M      0.048700
@<TRIPOS>BOND
     1    1    2 1   
     2    1   16 1   
     3    2    3 1   
     4    2   30 1   
     5    2   31 1   
     6    3    4 2   
     7    3    7 1   
     8    4    5 1   
     9    5    6 2   
    10    5    8 1   
    11    6    7 1   
    12    8    9 ar  
    13    8   13 ar  
    14    9   10 ar  
    15    9   32 1   
    16   10   11 ar  
    17   10   33 1   
    18   11   12 ar  
    19   11   14 1   
    20   12   13 ar  
    21   12   34 1   
    22   13   35 1   
    23   14   15 1   
    24   15   36 1   
    25   15   37 1   
    26   15   38 1   
    27   16   17 1   
    28   16   20 2   
    29   17   18 1   
    30   17   22 1   
    31   18   19 2   
    32   18   21 1   
    33   19   20 1   
    34   21   39 1   
    35   21   40 1   
    36   21   41 1   
    37   22   23 ar  
    38   22   27 ar  
    39   23   24 ar  
    40   23   42 1   
    41   24   25 ar  
    42   24   43 1   
    43   25   26 ar  
    44   25   28 1   
    45   26   27 ar  
    46   26   44 1   
    47   27   45 1   
    48   28   29 1   
    49   29   46 1   
    50   29   47 1   
    51   29   48 1   
@<TRIPOS>SUBSTRUCTURE
     1 34M         1 TEMP              0 ****  ****    0 ROOT
