@<TRIPOS>MOLECULE
molecule
   52    54     1     0     0
SMALL
bcc


@<TRIPOS>ATOM
      1 C5           0.0000     0.0000     0.0000 ca         1 34N      -0.299500
      2 C6           1.3820     0.0000     0.0000 ca         1 34N      -0.025000
      3 C7           2.0730     0.0000     1.1970 ca         1 34N      -0.147000
      4 C8           1.3820     0.0020     2.3940 ca         1 34N      -0.023300
      5 C10         -0.6920     0.0020     1.1970 ca         1 34N      -0.025000
      6 C15          2.5770     2.5660     7.8830 c          1 34N       0.666700
      7 C17          2.0820     3.6670     8.7380 ca         1 34N      -0.125600
      8 C20          1.1520     5.7300    10.3420 ca         1 34N       0.003000
      9 C21          2.2390     4.9590    10.7570 ca         1 34N      -0.100500
     10 C22          2.7010     3.9340     9.9600 ca         1 34N      -0.092500
     11 C26          0.6740    -1.6410     4.8950 ca         1 34N      -0.096000
     12 C28          1.5350    -3.7300     5.6900 ca         1 34N       0.137900
     13 F29          1.3460    -4.9110     6.3190 f          1 34N      -0.137900
     14 C27          0.4790    -2.8490     5.5390 ca         1 34N      -0.162000
     15 C30          2.7860    -3.4020     5.1950 ca         1 34N      -0.162000
     16 C31          2.9790    -2.1940     4.5520 ca         1 34N      -0.096000
     17 C25          1.9240    -1.3140     4.4020 ca         1 34N      -0.101300
     18 C11          2.1360     0.0020     3.6990 c3         1 34N       0.021900
     19 C9          -0.0010     0.0050     2.3940 ca         1 34N      -0.147000
     20 S2          -0.8810     0.0070    -1.5260 sy         1 34N       1.191300
     21 O3          -2.1280     0.6120    -1.2090 o          1 34N      -0.617800
     22 O4           0.0150     0.6150    -2.4450 o          1 34N      -0.617800
     23 C1          -1.1090    -1.7480    -1.9250 c3         1 34N      -0.225300
     24 C12          1.6220     1.1400     4.5840 c3         1 34N      -0.090400
     25 N14          1.9790     2.3090     6.7030 ns         1 34N      -0.580900
     26 O16          3.5240     1.8960     8.2440 o          1 34N      -0.601100
     27 C23          0.6720     6.7960    11.1700 cg         1 34N       0.232800
     28 N24          0.2830     7.6490    11.8110 n1         1 34N      -0.350800
     29 C19          0.5360     5.4670     9.1160 ca         1 34N      -0.100500
     30 C18          0.9980     4.4420     8.3200 ca         1 34N      -0.092500
     31 H6           1.9240    -0.0020    -0.9380 ha         1 34N       0.152500
     32 H7           3.1570     0.0000     1.1970 ha         1 34N       0.138000
     33 H10         -1.7750     0.0020     1.1970 ha         1 34N       0.152500
     34 H13          3.4920     0.9430     5.6260 h1         1 34N       0.070200
     35 H13A         2.0710     0.5380     6.5980 h1         1 34N       0.070200
     36 H21          2.7470     5.1930    11.6850 ha         1 34N       0.147500
     37 H22          3.5440     3.3350    10.2830 ha         1 34N       0.149000
     38 H26         -0.1520    -0.9510     4.7770 ha         1 34N       0.137000
     39 H27         -0.5000    -3.1040     5.9250 ha         1 34N       0.148000
     40 H30          3.6040    -4.1080     5.2800 ha         1 34N       0.148000
     41 H31          3.9570    -1.9370     4.1640 ha         1 34N       0.137000
     42 H11          3.1920     0.1420     3.5070 hc         1 34N       0.068700
     43 H9          -0.5430     0.0060     3.3330 ha         1 34N       0.138000
     44 H1          -0.1460    -2.2000    -2.1290 h1         1 34N       0.098700
     45 H1A         -1.5730    -2.2520    -1.0860 h1         1 34N       0.098700
     46 H1B         -1.7440    -1.8410    -2.7980 h1         1 34N       0.098700
     47 H12          1.7460     2.0840     4.0660 hc         1 34N       0.053200
     48 H12A         0.5730     0.9830     4.8020 hc         1 34N       0.053200
     49 HN14         1.2150     2.8770     6.3950 hn         1 34N       0.313500
     50 H19         -0.3070     6.0660     8.7940 ha         1 34N       0.147500
     51 H18          0.5200     4.2380     7.3700 ha         1 34N       0.149000
     52 C13          2.4700     1.2190     5.8550 c3         1 34N       0.093000
@<TRIPOS>BOND
     1     1     2 ar
     2     1     5 ar
     3     1    20 1
     4     2     3 ar
     5     3     4 ar
     6     4    18 1
     7     4    19 ar
     8     5    19 ar
     9    52    24 1
    10    52    25 1
    11     6     7 1
    12     6    25 1
    13     6    26 2
    14     7    10 ar
    15     7    30 ar
    16     8     9 ar
    17     8    27 1
    18     8    29 ar
    19     9    10 ar
    20    11    14 ar
    21    11    17 ar
    22    12    13 1
    23    12    14 ar
    24    12    15 ar
    25    15    16 ar
    26    16    17 ar
    27    17    18 1
    28    18    24 1
    29    20    21 2
    30    20    22 2
    31    20    23 1
    32    27    28 3
    33    29    30 ar
    34     2    31 1
    35     3    32 1
    36     5    33 1
    37    52    34 1
    38    52    35 1
    39     9    36 1
    40    10    37 1
    41    11    38 1
    42    14    39 1
    43    15    40 1
    44    16    41 1
    45    18    42 1
    46    19    43 1
    47    23    44 1
    48    23    45 1
    49    23    46 1
    50    24    47 1
    51    24    48 1
    52    25    49 1
    53    29    50 1
    54    30    51 1
@<TRIPOS>SUBSTRUCTURE
     1 34N         1 TEMP              0 ****  ****    0 ROOT
