@<TRIPOS>MOLECULE
34O
   38    38     1     0     0
SMALL
bcc


@<TRIPOS>ATOM
      1 C8          2.1720   -0.6810   -0.7950 c1        1 34O     -0.009000
      2 C10         1.5690    0.6400    5.8330 c2        1 34O     -0.019000
      3 C6          1.4470   -0.2450    1.4450 c2        1 34O     -0.145000
      4 C5          0.7590    0.7130    2.1270 c2        1 34O      0.097000
      5 C4          0.6630    0.7930    3.5780 c2        1 34O     -0.076000
      6 C1          2.1720   -1.3480    2.0120 c2        1 34O     -0.440000
      7 C2          2.6600   -1.4480    3.2390 c1        1 34O      0.210000
      8 C3          1.7140    0.6200    4.3990 c2        1 34O     -0.081000
      9 C19         4.3290   -1.0460   13.4090 c2        1 34O      0.017000
     10 C20         4.9980    0.0210   13.9560 c2        1 34O      0.024000
     11 O23         5.8510   -0.2340   15.0390 os        1 34O     -0.135000
     12 C24         6.2740    0.8340   15.7050 c1        1 34O     -0.029000
     13 C21         4.8570    1.3950   13.4260 c3        1 34O     -0.202000
     14 C22         3.9730    1.5720   12.2900 c1        1 34O     -0.059000
     15 C18         3.4560   -0.8220   12.2760 c2        1 34O     -0.009000
     16 C17         3.2980    0.4340   11.7530 c2        1 34O     -0.176000
     17 C16         2.3840    0.6680   10.6110 c3        1 34O     -0.240000
     18 C12         2.2890    0.6120    7.9260 c2        1 34O     -0.213000
     19 N13         0.9310    0.6760    7.9120 n2        1 34O     -0.114000
     20 N14         0.5060    0.6930    6.6660 n2        1 34O     -0.054000
     21 O11         2.7530    0.5870    6.6040 os        1 34O     -0.101000
     22 O7          1.3430   -0.1670    0.0200 os        1 34O     -0.041000
     23 O9          0.0220    1.6890    1.5040 oh        1 34O     -0.237000
     24 H8          0.0280    1.5270    0.5460 ho        1 34O      0.243000
     25 H8A         3.0530   -1.2610   -0.4460 ha        1 34O      0.041000
     26 H4         -0.3520    1.0130    3.9620 ha        1 34O      0.178000
     27 H1          2.3090   -2.2320    1.3490 ha        1 34O      0.195000
     28 H2          2.7620    0.5280    4.0500 ha        1 34O      0.171000
     29 H24         8.3020    1.1620   14.5310 ha        1 34O      0.007000
     30 H24A        7.8870    1.5850   14.1990 ha        1 34O      0.007000
     31 H24B        6.9370    0.4510   16.5220 ha        1 34O      0.056000
     32 H21         5.8770    1.8010   13.1410 hc        1 34O      0.198000
     33 H22         4.5090    2.0860   14.2590 hc        1 34O      0.198000
     34 H18         2.9330   -1.7050   11.8680 ha        1 34O      0.161000
     35 H16         1.9220    1.6860   10.6840 h1        1 34O      0.139000
     36 H16A        1.5600   -0.0860   10.5730 h1        1 34O      0.139000
     37 S15         3.4090    0.5620    9.1590 ss        1 34O      0.382000
     38 F25         4.4470   -2.3060   13.8870 f         1 34O     -0.085000
@<TRIPOS>BOND
     1    1   22 1   
     2    1   25 1   
     3    2    8 1   
     4    2   20 1   
     5    2   21 1   
     6    3    4 1   
     7    3    6 1   
     8    3   22 1   
     9    4    5 1   
    10    4   23 1   
    11    5    8 1   
    12    5   26 1   
    13    6    7 1   
    14    6   27 1   
    15    8   28 1   
    16    9   10 1   
    17    9   15 1   
    18    9   38 1   
    19   10   11 1   
    20   10   13 1   
    21   11   12 1   
    22   12   31 1   
    23   13   14 1   
    24   13   32 1   
    25   13   33 1   
    26   14   16 1   
    27   15   16 1   
    28   15   34 1   
    29   16   17 1   
    30   17   35 1   
    31   17   36 1   
    32   17   37 1   
    33   18   19 1   
    34   18   21 1   
    35   18   37 1   
    36   19   20 1   
    37   23   24 1   
    38   29   30 1   
@<TRIPOS>SUBSTRUCTURE
     1 34O         1 TEMP              0 ****  ****    0 ROOT
