@<TRIPOS>MOLECULE
molecule
   47    50     1     0     0
SMALL
bcc


@<TRIPOS>ATOM
      1 N1           0.0000     0.0000     0.0000 n          1 34Q      -0.505800
      2 N3           1.1360     2.3300     1.9490 nz         1 34Q      -0.809600
      3 C4           3.2430     0.5920     1.6940 c          1 34Q       0.697100
      4 C5           5.0980     0.2250     3.5220 c3         1 34Q       0.099500
      5 C6           5.5840    -0.9540     4.4010 c3         1 34Q      -0.089400
      6 C7           3.2440    -1.2510     3.8520 c3         1 34Q       0.099500
      7 C8           4.2490    -1.4630     5.0050 c3         1 34Q      -0.089400
      8 C10         -0.7860    -0.4470    -0.9990 c          1 34Q       0.602600
      9 C13         -4.9480    -0.3160    -0.7040 ca         1 34Q       0.321300
     10 C15         -4.7320     0.6760     1.5160 ca         1 34Q      -0.177300
     11 C17         -2.2610    -0.3880    -0.8660 ca         1 34Q       0.265500
     12 O2          -0.2840    -0.8990    -2.0100 o          1 34Q      -0.546100
     13 C18         -3.0750    -0.8550    -1.9120 ca         1 34Q       0.357900
     14 N5          -4.3830    -0.8100    -1.8110 nb         1 34Q      -0.631000
     15 C14         -4.1270     0.1580     0.3540 ca         1 34Q       0.291300
     16 N4          -2.8000     0.1050     0.2360 nb         1 34Q      -0.672000
     17 C16         -6.0880     0.7170     1.6080 ca         1 34Q      -0.097000
     18 C12         -6.3460    -0.2610    -0.5670 ca         1 34Q      -0.152300
     19 C11         -6.8930     0.2470     0.5710 ca         1 34Q      -0.100000
     20 C1           1.4750     0.0000     0.0000 c3         1 34Q       0.100000
     21 C2           1.8700     0.0000     1.4980 c3         1 34Q      -0.208700
     22 C3           0.7770     0.9150     2.1090 c3         1 34Q       0.080500
     23 C9          -0.4710     0.5740     1.2680 c3         1 34Q       0.104000
     24 O1           3.6800     1.3870     0.8880 o          1 34Q      -0.510100
     25 N2           3.8100    -0.2240     2.9640 n          1 34Q      -0.566800
     26 HN3          1.3840     2.5060     0.9960 hn         1 34Q       0.462467
     27 HN3A         1.9130     2.5460     2.5420 hn         1 34Q       0.462467
     28 H6           6.0500    -1.7210     3.7940 hc         1 34Q       0.069700
     29 H6A          6.2520    -0.6060     5.1800 hc         1 34Q       0.069700
     30 H7           3.1120    -2.1770     3.3050 h1         1 34Q       0.042200
     31 H7A          2.2950    -0.9110     4.2490 h1         1 34Q       0.042200
     32 H8           4.3210    -2.5140     5.2590 hc         1 34Q       0.069700
     33 H8A          3.9700    -0.8700     5.8680 hc         1 34Q       0.069700
     34 H15         -4.1200     1.0450     2.3300 ha         1 34Q       0.136000
     35 H18         -2.8620    -1.2870    -2.8830 h4         1 34Q       0.071100
     36 H16         -6.5500     1.1160     2.5030 ha         1 34Q       0.148000
     37 H12         -6.9850    -0.6220    -1.3640 ha         1 34Q       0.168000
     38 H11         -7.9710     0.2910     0.6700 ha         1 34Q       0.154000
     39 H1           1.8500     0.8910    -0.4880 h1         1 34Q       0.089700
     40 H1A          1.8500    -0.8910    -0.4880 h1         1 34Q       0.089700
     41 H2           1.8100    -1.0000     1.9110 hc         1 34Q       0.137700
     42 H3           0.6140     0.6690     3.1520 hx         1 34Q       0.128700
     43 H9          -1.0830    -0.1490     1.7950 h1         1 34Q       0.090700
     44 H9A         -1.0410     1.4750     1.0750 h1         1 34Q       0.090700
     45 H5           4.9560     1.1120     4.1290 h1         1 34Q       0.042200
     46 H33          0.3250     2.8980     2.0930 hn         1 34Q       0.462467
     47 H5A          5.8070     0.4160     2.7250 h1         1 34Q       0.042200
@<TRIPOS>BOND
     1     1     8 1   
     2     1    20 1   
     3     1    23 1   
     4     2    22 1   
     5     3    21 1   
     6     3    24 2   
     7     3    25 1   
     8     4     5 1   
     9     4    25 1   
    10     5     7 1   
    11     6     7 1   
    12     6    25 1   
    13     8    11 1   
    14     8    12 2   
    15     9    14 ar  
    16     9    15 ar  
    17     9    18 ar  
    18    10    15 ar  
    19    10    17 ar  
    20    11    13 ar  
    21    11    16 ar  
    22    13    14 ar  
    23    15    16 ar  
    24    17    19 ar  
    25    18    19 ar  
    26    20    21 1   
    27    21    22 1   
    28    22    23 1   
    29     2    26 1   
    30     2    27 1   
    31     4    45 1   
    32     4    47 1   
    33     5    28 1   
    34     5    29 1   
    35     6    30 1   
    36     6    31 1   
    37     7    32 1   
    38     7    33 1   
    39    10    34 1   
    40    13    35 1   
    41    17    36 1   
    42    18    37 1   
    43    19    38 1   
    44    20    39 1   
    45    20    40 1   
    46    21    41 1   
    47    22    42 1   
    48    23    43 1   
    49    23    44 1   
    50    46     2 1   
@<TRIPOS>SUBSTRUCTURE
     1 34Q         1 TEMP              0 ****  ****    0 ROOT
