@<TRIPOS>MOLECULE
molecule
   67    71     1     0     0
SMALL
bcc


@<TRIPOS>ATOM
      1 O30          0.0000     0.0000     0.0000 o          1 34R      -0.605100
      2 C16          1.2170     0.0000     0.0000 c          1 34R       0.702300
      3 C15          1.9470     0.0000     1.2670 ce         1 34R      -0.230200
      4 C14          1.2720     0.0000     2.4350 cf         1 34R      -0.028200
      5 C13          2.0060    -0.0000     3.7080 ca         1 34R      -0.053800
      6 C10          1.3100    -0.0000     4.9250 ca         1 34R       0.101100
      7 O11         -0.0490    -0.0010     4.9340 os         1 34R      -0.336900
      8 C12         -0.6980    -1.2740     4.9370 c3         1 34R       0.133700
      9 C07          2.0150    -0.0000     6.1230 ca         1 34R       0.126100
     10 O08          1.3460    -0.0000     7.3070 os         1 34R      -0.312900
     11 C09          2.1350    -0.0010     8.4980 c3         1 34R       0.126700
     12 C06          3.4010    -0.0000     6.1100 ca         1 34R      -0.205000
     13 C05          4.0910    -0.0000     4.9090 ca         1 34R      -0.052300
     14 C04          5.5970    -0.0060     4.9110 c3         1 34R       0.030200
     15 C03          6.1060     1.4120     4.9000 ca         1 34R      -0.412900
     16 C32          6.4430     2.0330     3.7130 ca         1 34R       0.503200
     17 N33          6.8880     3.2810     3.7370 nb         1 34R      -0.787000
     18 C34          7.0120     3.9370     4.8820 ca         1 34R       0.969900
     19 N35          7.4800     5.2400     4.8650 nv         1 34R      -1.058500
     20 N36          6.6990     3.3780     6.0410 nb         1 34R      -0.819000
     21 C02          6.2420     2.1300     6.0890 ca         1 34R       0.746200
     22 N01          5.9150     1.5490     7.3030 nv         1 34R      -1.006500
     23 C31          3.4060    -0.0060     3.7140 ca         1 34R      -0.134000
     24 N17          1.8910    -0.0050    -1.1660 n          1 34R      -0.248800
     25 N18          3.2940    -0.0120    -1.1730 n2         1 34R      -0.450300
     26 C19          3.9420     0.5790    -2.1330 ce         1 34R       0.420800
     27 C22          3.1910     1.2500    -3.2110 ca         1 34R      -0.178900
     28 C40          3.8230     2.1520    -4.0670 ca         1 34R      -0.096000
     29 C38          3.0980     2.7670    -5.0670 ca         1 34R      -0.130000
     30 C37          1.7490     2.4940    -5.2190 ca         1 34R      -0.108000
     31 C23          1.1160     1.6000    -4.3720 ca         1 34R      -0.114000
     32 C21          1.8300     0.9770    -3.3730 ca         1 34R      -0.069300
     33 C20          1.1640    -0.0120    -2.4430 c3         1 34R       0.192300
     34 C24          1.2100    -1.3910    -3.0460 ca         1 34R      -0.100300
     35 C25          0.0910    -1.9130    -3.6660 ca         1 34R      -0.110500
     36 C26          0.1340    -3.1800    -4.2200 ca         1 34R      -0.128500
     37 C27          1.2970    -3.9240    -4.1520 ca         1 34R      -0.123000
     38 C28          2.4160    -3.4030    -3.5320 ca         1 34R      -0.128500
     39 C29          2.3750    -2.1340    -2.9840 ca         1 34R      -0.110500
     40 H1           3.0310    -0.0010     1.2670 ha         1 34R       0.148000
     41 H2           0.1890     0.0010     2.4350 ha         1 34R       0.166000
     42 H3           0.0270    -2.0500     4.7240 h1         1 34R       0.037700
     43 H4          -1.1400    -1.4510     5.9100 h1         1 34R       0.037700
     44 H5          -1.4730    -1.2860     4.1810 h1         1 34R       0.037700
     45 H6           2.8140    -0.8450     8.4820 h1         1 34R       0.040700
     46 H7           2.7040     0.9200     8.5540 h1         1 34R       0.040700
     47 H8           1.4850    -0.0770     9.3610 h1         1 34R       0.040700
     48 H9           3.9470    -0.0000     7.0460 ha         1 34R       0.131000
     49 H10          5.9550    -0.5110     5.8000 hc         1 34R       0.051700
     50 H11          5.9570    -0.5260     4.0310 hc         1 34R       0.051700
     51 H12          6.3450     1.5050     2.7720 h4         1 34R       0.026100
     52 H13          8.4630     5.4170     4.8080 hn         1 34R       0.444800
     53 H14          6.8360     6.0040     4.9200 hn         1 34R       0.444800
     54 H15          5.7140     0.5700     7.3500 hn         1 34R       0.441800
     55 H16          5.9500     2.0930     8.1430 hn         1 34R       0.441800
     56 H17          3.9520    -0.0060     2.7780 ha         1 34R       0.143000
     57 H18          5.0250     0.5770    -2.1430 h4         1 34R       0.051800
     58 H19          4.8790     2.3660    -3.9490 ha         1 34R       0.135000
     59 H20          3.5850     3.4680    -5.7340 ha         1 34R       0.135000
     60 H21          1.1870     2.9810    -6.0070 ha         1 34R       0.135000
     61 H22          0.0600     1.3900    -4.4950 ha         1 34R       0.139000
     62 H23          0.1350     0.2830    -2.2760 h1         1 34R       0.108700
     63 H24         -0.8200    -1.3290    -3.7190 ha         1 34R       0.135000
     64 H25         -0.7440    -3.5880    -4.7060 ha         1 34R       0.130500
     65 H26          1.3300    -4.9170    -4.5840 ha         1 34R       0.129000
     66 H27          3.3280    -3.9860    -3.4810 ha         1 34R       0.130500
     67 H28          3.2530    -1.7260    -2.4970 ha         1 34R       0.135000
@<TRIPOS>BOND
     1    22    21 1
     2    21    20 ar
     3    21    15 ar
     4    20    18 ar
     5    14    15 1
     6    14    13 1
     7    15    16 ar
     8    13    23 ar
     9    13    12 ar
    10    18    19 1
    11    18    17 ar
    12    23     5 ar
    13    12     9 ar
    14    16    17 ar
    15    38    37 ar
    16    38    39 ar
    17    37    36 ar
    18    25    26 2
    19    25    24 1
    20    11    10 1
    21    26    27 1
    22    39    34 ar
    23     5     6 ar
    24     5     4 1
    25     9     6 ar
    26     9    10 1
    27     3     4 2
    28     3     2 1
    29    36    35 ar
    30     6     7 1
    31    24     2 1
    32    24    33 1
    33    34    35 ar
    34    34    33 1
    35    27    28 ar
    36    27    32 ar
    37    28    29 ar
    38     2     1 2
    39    33    32 1
    40     7     8 1
    41    32    31 ar
    42    29    30 ar
    43    31    30 ar
    44     3    40 1
    45     4    41 1
    46     8    42 1
    47     8    43 1
    48     8    44 1
    49    11    45 1
    50    11    46 1
    51    11    47 1
    52    12    48 1
    53    14    49 1
    54    14    50 1
    55    16    51 1
    56    19    52 1
    57    19    53 1
    58    22    54 1
    59    22    55 1
    60    23    56 1
    61    26    57 1
    62    28    58 1
    63    29    59 1
    64    30    60 1
    65    31    61 1
    66    33    62 1
    67    35    63 1
    68    36    64 1
    69    37    65 1
    70    38    66 1
    71    39    67 1
@<TRIPOS>SUBSTRUCTURE
     1 34R         1 TEMP              0 ****  ****    0 ROOT
