@<TRIPOS>MOLECULE
34R
   67    73     1     0     0
SMALL
bcc


@<TRIPOS>ATOM
      1 O30          0.0000     0.0000     0.0000 o          1 34R      -0.435000
      2 C16          1.2170     0.0000     0.0000 c3         1 34R       0.380000
      3 C15          1.9470     0.0000     1.2670 c2         1 34R      -0.086000
      4 C14          1.2720     0.0000     2.4350 c2         1 34R       0.021000
      5 C13          2.0060    -0.0000     3.7080 c3         1 34R       0.034000
      6 C10          1.3100    -0.0000     4.9250 c2         1 34R      -0.029000
      7 O11         -0.0490    -0.0010     4.9340 os         1 34R      -0.196000
      8 C12         -0.6980    -1.2740     4.9370 c3         1 34R       0.058000
      9 C07          2.0150    -0.0000     6.1230 c2         1 34R       0.127000
     10 O08          1.3460    -0.0000     7.3070 os         1 34R      -0.173000
     11 C09          2.1350    -0.0010     8.4980 c3         1 34R       0.051000
     12 C06          3.4010    -0.0000     6.1100 c2         1 34R      -0.256000
     13 C05          4.0910    -0.0000     4.9090 c2         1 34R      -0.013000
     14 C04          5.5970    -0.0060     4.9110 c3         1 34R       0.019000
     15 C03          6.1060     1.4120     4.9000 c2         1 34R      -0.284000
     16 C32          6.4430     2.0330     3.7130 c2         1 34R       0.030000
     17 N33          6.8880     3.2810     3.7370 n2         1 34R      -0.164000
     18 C34          7.0120     3.9370     4.8820 c2         1 34R       0.037000
     19 N35          7.4800     5.2400     4.8650 nv         1 34R      -0.033000
     20 N36          6.6990     3.3780     6.0410 n2         1 34R      -0.179000
     21 C02          6.2420     2.1300     6.0890 c2         1 34R       0.032000
     22 N01          5.9150     1.5490     7.3030 nv         1 34R       0.067000
     23 C31          3.4060    -0.0060     3.7140 c2         1 34R      -0.187000
     24 N17          1.8910    -0.0050    -1.1660 n3         1 34R       0.018000
     25 N18          3.2940    -0.0120    -1.1730 n2         1 34R      -0.095000
     26 C19          3.9420     0.5790    -2.1330 c2         1 34R      -0.030000
     27 C22          3.1910     1.2500    -3.2110 ca         1 34R      -0.106000
     28 C40          3.8230     2.1520    -4.0670 ca         1 34R      -0.060000
     29 C38          3.0980     2.7670    -5.0670 ca         1 34R      -0.103000
     30 C37          1.7490     2.4940    -5.2190 ca         1 34R      -0.077000
     31 C23          1.1160     1.6000    -4.3720 ca         1 34R      -0.084000
     32 C21          1.8300     0.9770    -3.3730 ca         1 34R      -0.074000
     33 C20          1.1640    -0.0120    -2.4430 c3         1 34R       0.042000
     34 C24          1.2100    -1.3910    -3.0460 ca         1 34R      -0.105000
     35 C25          0.0910    -1.9130    -3.6660 ca         1 34R      -0.090500
     36 C26          0.1340    -3.1800    -4.2200 ca         1 34R      -0.097500
     37 C27          1.2970    -3.9240    -4.1520 ca         1 34R      -0.095000
     38 C28          2.4160    -3.4030    -3.5320 ca         1 34R      -0.097500
     39 C29          2.3750    -2.1340    -2.9840 ca         1 34R      -0.090500
     40 H1           1.4810     0.8750     0.8290 DU         1 34R       0.016000
     41 H2           1.7380     0.8750     2.8730 DU         1 34R       0.087000
     42 H3           0.0320    -2.0520     4.7490 h1         1 34R       0.032667
     43 H4          -1.4560    -1.2950     4.1640 h1         1 34R       0.032667
     44 H5          -1.1620    -1.4400     5.9020 h1         1 34R       0.032667
     45 H6           2.6860     0.9300     8.5670 h1         1 34R       0.036333
     46 H7           2.8310    -0.8300     8.4700 h1         1 34R       0.036333
     47 H8           1.4870    -0.1010     9.3600 h1         1 34R       0.036333
     48 H9           3.9470    -0.0000     7.0460 ha         1 34R       0.123000
     49 H10          5.9550    -0.5110     5.8000 hc         1 34R       0.061000
     50 H11          5.9570    -0.5260     4.0310 hc         1 34R       0.061000
     51 H12          6.3450     1.5050     2.7720 h4         1 34R       0.118000
     52 H13          6.8360     6.0040     4.9240 hn         1 34R       0.074000
     53 H14          8.4630     5.4170     4.8000 hn         1 34R       0.074000
     54 H15          6.0030     2.0760     8.1500 hn         1 34R       0.074500
     55 H16          5.6370     0.5880     7.3390 hn         1 34R       0.074500
     56 H17          3.9520    -0.0060     2.7780 ha         1 34R       0.133000
     57 H18          5.0250     0.5770    -2.1430 h4         1 34R       0.132000
     58 H19          4.8790     2.3660    -3.9490 ha         1 34R       0.109000
     59 H20          3.5850     3.4680    -5.7340 ha         1 34R       0.108000
     60 H21          1.1870     2.9810    -6.0070 ha         1 34R       0.106000
     61 H22          0.0600     1.3900    -4.4950 ha         1 34R       0.113000
     62 H23          0.1350     0.2830    -2.2760 h1         1 34R       0.119000
     63 H24         -0.8200    -1.3290    -3.7190 ha         1 34R       0.112500
     64 H25         -0.7440    -3.5880    -4.7060 ha         1 34R       0.103500
     65 H26          1.3300    -4.9170    -4.5840 ha         1 34R       0.102000
     66 H27          3.3280    -3.9860    -3.4810 ha         1 34R       0.103500
     67 H28          3.2530    -1.7260    -2.4970 ha         1 34R       0.112500
@<TRIPOS>BOND
     1     1     2 1   
     2     2     3 1   
     3     2    24 1   
     4     2    40 1   
     5     3     4 1   
     6     3    40 1   
     7     4     5 1   
     8     4    41 1   
     9     5     6 1   
    10     5    23 1   
    11     5    41 1   
    12     6     7 1   
    13     6     9 1   
    14     7     8 1   
    15     8    42 1   
    16     8    43 1   
    17     8    44 1   
    18     9    10 1   
    19     9    12 1   
    20    10    11 1   
    21    11    45 1   
    22    11    46 1   
    23    11    47 1   
    24    12    13 1   
    25    12    48 1   
    26    13    14 1   
    27    13    23 1   
    28    14    15 1   
    29    14    49 1   
    30    14    50 1   
    31    15    16 1   
    32    15    21 1   
    33    16    17 1   
    34    16    51 1   
    35    17    18 1   
    36    18    19 1   
    37    18    20 1   
    38    19    52 1   
    39    19    53 1   
    40    20    21 1   
    41    21    22 1   
    42    22    54 1   
    43    22    55 1   
    44    23    56 1   
    45    24    25 1   
    46    24    33 1   
    47    25    26 1   
    48    26    27 1   
    49    26    57 1   
    50    27    28 1   
    51    27    32 1   
    52    28    29 1   
    53    28    58 1   
    54    29    30 1   
    55    29    59 1   
    56    30    31 1   
    57    30    60 1   
    58    31    32 1   
    59    31    61 1   
    60    32    33 1   
    61    33    34 1   
    62    33    62 1   
    63    34    35 1   
    64    34    39 1   
    65    35    36 1   
    66    35    63 1   
    67    36    37 1   
    68    36    64 1   
    69    37    38 1   
    70    37    65 1   
    71    38    39 1   
    72    38    66 1   
    73    39    67 1   
@<TRIPOS>SUBSTRUCTURE
     1 34R         1 TEMP              0 ****  ****    0 ROOT
