@<TRIPOS>MOLECULE
34S
   67    73     1     0     0
SMALL
bcc


@<TRIPOS>ATOM
      1 O30          0.0000     0.0000     0.0000 o          1 34S      -0.436000
      2 C16          1.2190     0.0000     0.0000 c3         1 34S       0.379000
      3 N17          1.8920     0.0000     1.1660 n3         1 34S       0.019000
      4 N18          3.2950     0.0060     1.1730 n2         1 34S      -0.092000
      5 C19          3.9370     0.6060     2.1310 c2         1 34S      -0.034000
      6 C22          3.1810     1.2770     3.2040 ca         1 34S      -0.106000
      7 C40          3.8060     2.1870     4.0580 ca         1 34S      -0.061000
      8 C38          3.0750     2.8020     5.0540 ca         1 34S      -0.103000
      9 C37          1.7290     2.5180     5.2070 ca         1 34S      -0.078000
     10 C23          1.1030     1.6140     4.3650 ca         1 34S      -0.083000
     11 C21          1.8220     0.9940     3.3680 ca         1 34S      -0.074000
     12 C20          1.1640     0.0000     2.4420 c3         1 34S       0.041000
     13 C24          1.2120    -1.3760     3.0530 ca         1 34S      -0.106000
     14 C25          2.3770    -2.1190     2.9950 ca         1 34S      -0.089500
     15 C26          2.4200    -3.3820     3.5560 ca         1 34S      -0.097000
     16 C27          1.2990    -3.9030     4.1740 ca         1 34S      -0.094000
     17 C28          0.1340    -3.1600     4.2330 ca         1 34S      -0.097000
     18 C29          0.0920    -1.8960     3.6770 ca         1 34S      -0.089500
     19 C15          1.9490    -0.0060    -1.2660 c2         1 34S      -0.082000
     20 C14          1.2730    -0.0120    -2.4350 c2         1 34S       0.037000
     21 C13          2.0080    -0.0190    -3.7090 c3         1 34S       0.028000
     22 C10          1.3110    -0.0240    -4.9250 c2         1 34S      -0.025000
     23 O11         -0.0480    -0.0240    -4.9330 os         1 34S      -0.189000
     24 C12         -0.6960     1.2490    -4.9430 c3         1 34S       0.055000
     25 C07          2.0180    -0.0300    -6.1230 c2         1 34S       0.125000
     26 O08          1.3480    -0.0350    -7.3070 os         1 34S      -0.173000
     27 C09          2.1380    -0.0420    -8.4980 c3         1 34S       0.051000
     28 C06          3.4030    -0.0290    -6.1100 c2         1 34S      -0.252000
     29 C05          4.0920    -0.0240    -4.9080 c2         1 34S      -0.014000
     30 C04          5.5990    -0.0180    -4.9090 c3         1 34S       0.020000
     31 C03          6.1080    -1.4360    -4.8940 c2         1 34S      -0.282000
     32 C32          6.4440    -2.0520    -3.7040 c2         1 34S       0.033000
     33 N33          6.8880    -3.3010    -3.7230 n2         1 34S      -0.157000
     34 C34          7.0130    -3.9600    -4.8660 c2         1 34S       0.037000
     35 N35          7.4810    -5.2630    -4.8430 nv         1 34S      -0.037000
     36 N36          6.7010    -3.4060    -6.0270 n2         1 34S      -0.177000
     37 C02          6.2440    -2.1590    -6.0810 c2         1 34S       0.031000
     38 N01          5.9180    -1.5820    -7.2970 nv         1 34S       0.066000
     39 C31          3.4080    -0.0130    -3.7140 c2         1 34S      -0.186000
     40 H1           5.0200     0.6130     2.1400 h4         1 34S       0.132000
     41 H2           4.8590     2.4100     3.9390 ha         1 34S       0.108000
     42 H3           3.5560     3.5100     5.7170 ha         1 34S       0.107000
     43 H4           1.1620     3.0050     5.9920 ha         1 34S       0.106000
     44 H5           0.0490     1.3960     4.4900 ha         1 34S       0.114000
     45 H6           0.1350     0.2920     2.2720 h1         1 34S       0.119000
     46 H7           3.2550    -1.7110     2.5100 ha         1 34S       0.112500
     47 H8           3.3330    -3.9630     3.5090 ha         1 34S       0.104000
     48 H9           1.3330    -4.8930     4.6110 ha         1 34S       0.102000
     49 H10         -0.7440    -3.5680     4.7200 ha         1 34S       0.104000
     50 H11         -0.8210    -1.3140     3.7230 ha         1 34S       0.112500
     51 H12          1.4820     0.8710    -0.8330 DU         1 34S       0.010000
     52 H13          1.7390     0.8610    -2.8780 DU         1 34S       0.074000
     53 H14          0.0500     2.0340    -4.9360 h1         1 34S       0.030667
     54 H15         -1.3250     1.3400    -4.0660 h1         1 34S       0.030667
     55 H16         -1.3050     1.3370    -5.8350 h1         1 34S       0.030667
     56 H17          1.4890     0.0450    -9.3610 h1         1 34S       0.036000
     57 H18          2.6950    -0.9680    -8.5560 h1         1 34S       0.036000
     58 H19          2.8270     0.7940    -8.4790 h1         1 34S       0.036000
     59 H20          3.9500    -0.0340    -7.0450 ha         1 34S       0.124000
     60 H21          5.9580     0.5040    -4.0300 hc         1 34S       0.058500
     61 H22          5.9580     0.4850    -5.7990 hc         1 34S       0.058500
     62 H23          6.3450    -1.5210    -2.7650 h4         1 34S       0.119000
     63 H24          8.4660    -5.4410    -4.8340 hn         1 34S       0.074000
     64 H25          6.8340    -6.0270    -4.8480 hn         1 34S       0.074000
     65 H26          5.7190    -0.6020    -7.3470 hn         1 34S       0.073000
     66 H27          5.9510    -2.1290    -8.1340 hn         1 34S       0.073000
     67 H28          3.9530    -0.0090    -2.7770 ha         1 34S       0.133000
@<TRIPOS>BOND
     1     1     2 1   
     2     2     3 1   
     3     2    19 1   
     4     2    51 1   
     5     3     4 1   
     6     3    12 1   
     7     4     5 1   
     8     5     6 1   
     9     5    40 1   
    10     6     7 1   
    11     6    11 1   
    12     7     8 1   
    13     7    41 1   
    14     8     9 1   
    15     8    42 1   
    16     9    10 1   
    17     9    43 1   
    18    10    11 1   
    19    10    44 1   
    20    11    12 1   
    21    12    13 1   
    22    12    45 1   
    23    13    14 1   
    24    13    18 1   
    25    14    15 1   
    26    14    46 1   
    27    15    16 1   
    28    15    47 1   
    29    16    17 1   
    30    16    48 1   
    31    17    18 1   
    32    17    49 1   
    33    18    50 1   
    34    19    20 1   
    35    19    51 1   
    36    20    21 1   
    37    20    52 1   
    38    21    22 1   
    39    21    39 1   
    40    21    52 1   
    41    22    23 1   
    42    22    25 1   
    43    23    24 1   
    44    24    53 1   
    45    24    54 1   
    46    24    55 1   
    47    25    26 1   
    48    25    28 1   
    49    26    27 1   
    50    27    56 1   
    51    27    57 1   
    52    27    58 1   
    53    28    29 1   
    54    28    59 1   
    55    29    30 1   
    56    29    39 1   
    57    30    31 1   
    58    30    60 1   
    59    30    61 1   
    60    31    32 1   
    61    31    37 1   
    62    32    33 1   
    63    32    62 1   
    64    33    34 1   
    65    34    35 1   
    66    34    36 1   
    67    35    63 1   
    68    35    64 1   
    69    36    37 1   
    70    37    38 1   
    71    38    65 1   
    72    38    66 1   
    73    39    67 1   
@<TRIPOS>SUBSTRUCTURE
     1 34S         1 TEMP              0 ****  ****    0 ROOT
