@<TRIPOS>MOLECULE
molecule
   67    71     1     0     0
SMALL
bcc


@<TRIPOS>ATOM
      1 O30          0.0000     0.0000     0.0000 o          1 34S      -0.606100
      2 C16          1.2190     0.0000     0.0000 c          1 34S       0.701300
      3 N17          1.8920     0.0000     1.1660 n          1 34S      -0.247800
      4 N18          3.2950     0.0060     1.1730 n2         1 34S      -0.447300
      5 C19          3.9370     0.6060     2.1310 ce         1 34S       0.417800
      6 C22          3.1810     1.2770     3.2040 ca         1 34S      -0.179900
      7 C40          3.8060     2.1870     4.0580 ca         1 34S      -0.097000
      8 C38          3.0750     2.8020     5.0540 ca         1 34S      -0.130000
      9 C37          1.7290     2.5180     5.2070 ca         1 34S      -0.109000
     10 C23          1.1030     1.6140     4.3650 ca         1 34S      -0.114000
     11 C21          1.8220     0.9940     3.3680 ca         1 34S      -0.069300
     12 C20          1.1640     0.0000     2.4420 c3         1 34S       0.191300
     13 C24          1.2120    -1.3760     3.0530 ca         1 34S      -0.101300
     14 C25          2.3770    -2.1190     2.9950 ca         1 34S      -0.109500
     15 C26          2.4200    -3.3820     3.5560 ca         1 34S      -0.128000
     16 C27          1.2990    -3.9030     4.1740 ca         1 34S      -0.122000
     17 C28          0.1340    -3.1600     4.2330 ca         1 34S      -0.128000
     18 C29          0.0920    -1.8960     3.6770 ca         1 34S      -0.109500
     19 C15          1.9490    -0.0060    -1.2660 cf         1 34S      -0.230200
     20 C14          1.2730    -0.0120    -2.4350 ce         1 34S      -0.028200
     21 C13          2.0080    -0.0190    -3.7090 ca         1 34S      -0.053800
     22 C10          1.3110    -0.0240    -4.9250 ca         1 34S       0.101100
     23 O11         -0.0480    -0.0240    -4.9330 os         1 34S      -0.335900
     24 C12         -0.6960     1.2490    -4.9430 c3         1 34S       0.133700
     25 C07          2.0180    -0.0300    -6.1230 ca         1 34S       0.126100
     26 O08          1.3480    -0.0350    -7.3070 os         1 34S      -0.312900
     27 C09          2.1380    -0.0420    -8.4980 c3         1 34S       0.125700
     28 C06          3.4030    -0.0290    -6.1100 ca         1 34S      -0.206000
     29 C05          4.0920    -0.0240    -4.9080 ca         1 34S      -0.052300
     30 C04          5.5990    -0.0180    -4.9090 c3         1 34S       0.029200
     31 C03          6.1080    -1.4360    -4.8940 ca         1 34S      -0.413900
     32 C32          6.4440    -2.0520    -3.7040 ca         1 34S       0.503200
     33 N33          6.8880    -3.3010    -3.7230 nb         1 34S      -0.785000
     34 C34          7.0130    -3.9600    -4.8660 ca         1 34S       0.969900
     35 N35          7.4810    -5.2630    -4.8430 nv         1 34S      -1.060500
     36 N36          6.7010    -3.4060    -6.0270 nb         1 34S      -0.819000
     37 C02          6.2440    -2.1590    -6.0810 ca         1 34S       0.747200
     38 N01          5.9180    -1.5820    -7.2970 nv         1 34S      -1.007500
     39 C31          3.4080    -0.0130    -3.7140 ca         1 34S      -0.134000
     40 H1           5.0200     0.6130     2.1400 h4         1 34S       0.051800
     41 H2           4.8590     2.4100     3.9390 ha         1 34S       0.134000
     42 H3           3.5560     3.5100     5.7170 ha         1 34S       0.135000
     43 H4           1.1620     3.0050     5.9920 ha         1 34S       0.135000
     44 H5           0.0490     1.3960     4.4900 ha         1 34S       0.139000
     45 H6           0.1350     0.2920     2.2720 h1         1 34S       0.108700
     46 H7           3.2550    -1.7110     2.5100 ha         1 34S       0.134500
     47 H8           3.3330    -3.9630     3.5090 ha         1 34S       0.130500
     48 H9           1.3330    -4.8930     4.6110 ha         1 34S       0.129000
     49 H10         -0.7440    -3.5680     4.7200 ha         1 34S       0.130500
     50 H11         -0.8210    -1.3140     3.7230 ha         1 34S       0.134500
     51 H12          3.0320    -0.0060    -1.2670 ha         1 34S       0.148000
     52 H13          0.1900    -0.0120    -2.4350 ha         1 34S       0.166000
     53 H14         -1.4720     1.2650    -4.1870 h1         1 34S       0.037367
     54 H15         -1.1370     1.4220    -5.9170 h1         1 34S       0.037367
     55 H16          0.0290     2.0250    -4.7330 h1         1 34S       0.037367
     56 H17          2.8180     0.8010    -8.4840 h1         1 34S       0.041033
     57 H18          2.7050    -0.9630    -8.5500 h1         1 34S       0.041033
     58 H19          1.4880     0.0320    -9.3620 h1         1 34S       0.041033
     59 H20          3.9500    -0.0340    -7.0450 ha         1 34S       0.130000
     60 H21          5.9580     0.4850    -5.7990 hc         1 34S       0.051700
     61 H22          5.9580     0.5040    -4.0300 hc         1 34S       0.051700
     62 H23          6.3450    -1.5210    -2.7650 h4         1 34S       0.026100
     63 H24          6.8340    -6.0270    -4.8470 hn         1 34S       0.444800
     64 H25          8.4660    -5.4410    -4.8340 hn         1 34S       0.444800
     65 H26          5.9990    -2.1140    -8.1410 hn         1 34S       0.442300
     66 H27          5.6410    -0.6210    -7.3360 hn         1 34S       0.442300
     67 H28          3.9530    -0.0090    -2.7770 ha         1 34S       0.143000
@<TRIPOS>BOND
     1    38    37 1
     2    37    36 ar
     3    37    31 ar
     4    36    34 ar
     5     8     7 ar
     6     8     9 ar
     7     7     6 ar
     8    30    31 1
     9    30    29 1
    10    31    32 ar
    11     9    10 ar
    12    34    35 1
    13    34    33 ar
    14     6     5 1
    15     6    11 ar
    16    29    39 ar
    17    29    28 ar
    18    39    21 ar
    19     5     4 2
    20    32    33 ar
    21    10    11 ar
    22    28    25 ar
    23    11    12 1
    24     4     3 1
    25    21    20 1
    26    21    22 ar
    27    20    19 2
    28    25    22 ar
    29    25    26 1
    30    22    23 1
    31     3    12 1
    32     3     2 1
    33    27    26 1
    34    12    13 1
    35    19     2 1
    36     2     1 2
    37    23    24 1
    38    14    13 ar
    39    14    15 ar
    40    13    18 ar
    41    15    16 ar
    42    18    17 ar
    43    16    17 ar
    44     5    40 1
    45     7    41 1
    46     8    42 1
    47     9    43 1
    48    10    44 1
    49    12    45 1
    50    14    46 1
    51    15    47 1
    52    16    48 1
    53    17    49 1
    54    18    50 1
    55    19    51 1
    56    20    52 1
    57    24    53 1
    58    24    54 1
    59    24    55 1
    60    27    56 1
    61    27    57 1
    62    27    58 1
    63    28    59 1
    64    30    60 1
    65    30    61 1
    66    32    62 1
    67    35    63 1
    68    35    64 1
    69    38    65 1
    70    38    66 1
    71    39    67 1
@<TRIPOS>SUBSTRUCTURE
     1 34S         1 TEMP              0 ****  ****    0 ROOT
