@<TRIPOS>MOLECULE
molecule
   27    28     1     0     0
SMALL
bcc


@<TRIPOS>ATOM
      1 S            0.0000     0.0000     0.0000 sy         1 34T       1.198300
      2 HS          -0.3630     0.7560    -1.0290 hs         1 34T       0.021800
      3 O1           1.4210     0.0000     0.0000 o          1 34T      -0.611300
      4 C1          -4.0820     0.1050     1.4880 c3         1 34T       0.164800
      5 C2          -4.3110     0.0000     3.0010 c3         1 34T      -0.079700
      6 C3          -3.5900     1.1730     3.6690 c3         1 34T      -0.026100
      7 C4          -2.1900     1.2880     3.1180 ca         1 34T      -0.150300
      8 C5          -1.2750     2.0600     3.8170 ca         1 34T      -0.043000
      9 C6           0.0180     2.2030     3.3540 ca         1 34T      -0.184000
     10 C7           0.4060     1.5730     2.1860 ca         1 34T      -0.002000
     11 C8          -0.4980     0.8010     1.4880 ca         1 34T      -0.352500
     12 C9          -1.8060     0.6500     1.9520 ca         1 34T       0.212600
     13 N           -2.6670    -0.1550     1.2100 nu         1 34T      -0.658600
     14 HN          -2.4900    -0.0230     0.2340 hn         1 34T       0.381800
     15 H1          -4.6930    -0.6290     0.9770 h1         1 34T       0.047200
     16 H1A         -4.3410     1.1010     1.1500 h1         1 34T       0.047200
     17 H2          -3.9050    -0.9350     3.3670 hc         1 34T       0.078700
     18 H3          -4.1280     2.0860     3.4450 hc         1 34T       0.055700
     19 H3A         -3.5310     0.9840     4.7340 hc         1 34T       0.055700
     20 H5          -1.5760     2.5550     4.7320 ha         1 34T       0.135000
     21 H6           0.7270     2.8090     3.9050 ha         1 34T       0.138000
     22 H7           1.4200     1.6830     1.8210 ha         1 34T       0.155000
     23 H10A        -6.2220     0.9770     2.8680 hc         1 34T       0.038367
     24 H10B        -5.9610     0.0890     4.3760 hc         1 34T       0.038367
     25 O2          -0.7820    -1.1820    -0.0920 o          1 34T      -0.611300
     26 C10         -5.8090     0.0740     3.3030 c3         1 34T      -0.089100
     27 H10         -6.3070    -0.7900     2.8800 hc         1 34T       0.038367
@<TRIPOS>BOND
     1     1    11 1
     2     1     2 1
     3     1    25 2
     4     3     1 2
     5     4     5 1
     6     4    15 1
     7     4    16 1
     8     5    26 1
     9     5    17 1
    10     6     5 1
    11     6    18 1
    12     6    19 1
    13     7     6 1
    14     8     7 ar
    15     8    20 1
    16     9     8 ar
    17     9    21 1
    18    10     9 ar
    19    10    11 ar
    20    10    22 1
    21    11    12 ar
    22    12     7 ar
    23    12    13 1
    24    26    27 1
    25    26    23 1
    26    26    24 1
    27    13     4 1
    28    14    13 1
@<TRIPOS>SUBSTRUCTURE
     1 34T         1 TEMP              0 ****  ****    0 ROOT
