@<TRIPOS>MOLECULE
34U
   59    63     1     0     0
SMALL
bcc


@<TRIPOS>ATOM
      1 C01          0.0000     0.0000     0.0000 c3         1 34U       0.254700
      2 O02          1.4280     0.0000     0.0000 os         1 34U      -0.408600
      3 C03          2.0090     0.0000     1.3060 c3         1 34U       0.207400
      4 C04          3.5350    -0.0000     1.1860 c3         1 34U       0.203400
      5 O05          3.9640     1.2220     0.5810 os         1 34U      -0.283900
      6 C06          5.3030     1.3830     0.4000 ca         1 34U       0.141100
      7 C07          5.7810     2.5440    -0.1740 ca         1 34U      -0.077000
      8 C08          7.1570     2.7080    -0.3590 ca         1 34U       0.104400
      9 C09          8.0360     1.6890     0.0410 ca         1 34U      -0.287200
     10 C10          7.5380     0.5290     0.6170 ca         1 34U      -0.042000
     11 C11          6.1810     0.3800     0.8000 ca         1 34U      -0.211000
     12 N12          9.3090     2.1400    -0.2680 na         1 34U       0.312900
     13 C13          9.1730     3.3760    -0.8280 cc         1 34U       0.256700
     14 N14          7.9170     3.7070    -0.8810 nd         1 34U      -0.488100
     15 C15         10.5050     1.4580    -0.0480 ca         1 34U       0.350800
     16 N16         10.4720     0.2620     0.5010 nb         1 34U      -0.593000
     17 C17         11.5920    -0.4290     0.7300 ca         1 34U       0.424600
     18 C18         12.8470     0.1250     0.3810 ca         1 34U      -0.158300
     19 C19         14.0230    -0.6050     0.6220 ca         1 34U      -0.047000
     20 C20         13.9500    -1.8400     1.1920 ca         1 34U      -0.150000
     21 C21         12.7230    -2.3960     1.5410 ca         1 34U      -0.131000
     22 C22         11.5490    -1.7110     1.3200 ca         1 34U      -0.042700
     23 N23         10.3250    -2.2800     1.6750 nh         1 34U      -0.372000
     24 C24         10.0600    -3.4920     0.8870 c3         1 34U       0.159300
     25 C25          8.6530    -4.0050     1.1980 c3         1 34U      -0.030400
     26 C26          8.5440    -4.3120     2.6940 c3         1 34U      -0.089500
     27 C27          8.8710    -3.0460     3.4910 c3         1 34U      -0.030400
     28 C28         10.2730    -2.5600     3.1150 c3         1 34U       0.159300
     29 N29          7.1780    -4.7490     3.0070 nz         1 34U       0.078400
     30 C30         12.8910     1.4050    -0.2080 ca         1 34U      -0.006000
     31 C31         11.7130     2.0580    -0.4220 ca         1 34U      -0.238300
     32 H1          -0.3610    -0.8880     0.5050 h1         1 34U      -0.009633
     33 H2          -0.3610     0.0060    -1.0210 h1         1 34U      -0.009633
     34 H3          -0.3610     0.8810     0.5160 h1         1 34U      -0.009633
     35 H4           1.6890    -0.8840     1.8440 h1         1 34U      -0.001300
     36 H5           1.6900     0.8850     1.8440 h1         1 34U      -0.001300
     37 H6           3.8490    -0.8370     0.5730 h1         1 34U      -0.005800
     38 H7           3.9750    -0.0890     2.1720 h1         1 34U      -0.005800
     39 H8           5.1040     3.3630    -0.3850 ha         1 34U       0.134000
     40 H9           8.2170    -0.2560     0.9300 ha         1 34U       0.123000
     41 H10          5.7950    -0.5220     1.2580 ha         1 34U       0.096000
     42 H11          9.9920     3.9930    -1.1780 h5         1 34U       0.035800
     43 H12         15.0440    -0.3130     0.4110 ha         1 34U       0.118000
     44 H13         14.9110    -2.3190     1.3370 ha         1 34U       0.118000
     45 H14         13.1450    -3.3180     1.9230 ha         1 34U       0.138000
     46 H15         10.7860    -4.2540     1.1440 h1         1 34U       0.034450
     47 H16         10.1330    -3.2580    -0.1680 h1         1 34U       0.034450
     48 H17          7.9270    -3.2470     0.9310 hc         1 34U       0.039700
     49 H18          8.4660    -4.9080     0.6300 hc         1 34U       0.039700
     50 H19          9.2480    -5.0930     2.9540 hx         1 34U       0.091700
     51 H20          8.1470    -2.2750     3.2560 hc         1 34U       0.039700
     52 H21          8.8390    -3.2700     4.5500 hc         1 34U       0.039700
     53 H22         10.4990    -1.6550     3.6650 h1         1 34U       0.034450
     54 H23         10.9980    -3.3280     3.3590 h1         1 34U       0.034450
     55 H24          7.1100    -4.9600     3.9830 hn         1 34U       0.223800
     56 H25          6.9590    -5.5670     2.4730 hn         1 34U       0.223800
     57 H27         13.8350     1.8540    -0.4910 ha         1 34U       0.123000
     58 H28         11.7170     3.0670    -0.8170 ha         1 34U       0.132000
     59 H293         6.5330    -4.0180     2.7790 hn         1 34U       0.223800
@<TRIPOS>BOND
     1     1     2 1   
     2     1    32 1   
     3     1    33 1   
     4     1    34 1   
     5     2     3 1   
     6     3     4 1   
     7     3    35 1   
     8     3    36 1   
     9     4     5 1   
    10     4    37 1   
    11     4    38 1   
    12     5     6 1   
    13     6     7 ar  
    14     6    11 ar  
    15     7     8 ar  
    16     7    39 1   
    17     8     9 ar  
    18     8    14 1   
    19     9    10 ar  
    20     9    12 1   
    21    10    11 ar  
    22    10    40 1   
    23    11    41 1   
    24    12    13 1   
    25    12    15 1   
    26    13    14 2   
    27    13    42 1   
    28    15    16 ar  
    29    15    31 ar  
    30    16    17 ar  
    31    17    18 ar  
    32    17    22 ar  
    33    18    19 ar  
    34    18    30 ar  
    35    19    20 ar  
    36    19    43 1   
    37    20    21 ar  
    38    20    44 1   
    39    21    22 ar  
    40    21    45 1   
    41    22    23 1   
    42    23    24 1   
    43    23    28 1   
    44    24    25 1   
    45    24    46 1   
    46    24    47 1   
    47    25    26 1   
    48    25    48 1   
    49    25    49 1   
    50    26    27 1   
    51    26    29 1   
    52    26    50 1   
    53    27    28 1   
    54    27    51 1   
    55    27    52 1   
    56    28    53 1   
    57    28    54 1   
    58    29    55 1   
    59    29    56 1   
    60    29    59 1   
    61    30    31 ar  
    62    30    57 1   
    63    31    58 1   
@<TRIPOS>SUBSTRUCTURE
     1 34U         1 TEMP              0 ****  ****    0 ROOT
