@<TRIPOS>MOLECULE
molecule
   59    63     1     0     0
SMALL
bcc


@<TRIPOS>ATOM
      1 C01          0.0000     0.0000     0.0000 c3         1 34W      -0.168100
      2 C02          1.5070     0.0000     0.0000 c          1 34W       0.658100
      3 O03          2.1140     0.0000     1.0490 o          1 34W      -0.618100
      4 N04          2.1810    -0.0000    -1.1680 ns         1 34W      -0.581900
      5 C05          3.6460    -0.0000    -1.1680 c3         1 34W       0.044000
      6 C06          4.1480    -0.0010    -2.5890 c          1 34W       0.684100
      7 O07          3.3600    -0.0010    -3.5110 o          1 34W      -0.616100
      8 N08          5.4730    -0.0020    -2.8350 n          1 34W      -0.506800
      9 C09          6.6660    -0.0020    -1.9160 c3         1 34W       0.151000
     10 C10          7.4070    -1.2850    -2.4070 c3         1 34W      -0.089400
     11 C11          7.1230    -1.2850    -3.9310 c3         1 34W      -0.091400
     12 C12          6.2550    -0.0090    -4.1230 c3         1 34W       0.170000
     13 C13          7.2080     1.1580    -3.8660 ca         1 34W      -0.092300
     14 C14          7.4650     1.1620    -2.4980 ca         1 34W      -0.127300
     15 C15          8.3010     2.1020    -1.9470 ca         1 34W      -0.086000
     16 C16          8.8920     3.0550    -2.7600 ca         1 34W      -0.156000
     17 C17          8.6390     3.0580    -4.1260 ca         1 34W       0.162600
     18 C18          7.7870     2.0990    -4.6790 ca         1 34W      -0.092000
     19 N19          9.2370     4.0200    -4.9450 nu         1 34W      -0.748300
     20 C20          9.6940     3.6710    -6.2040 ca         1 34W       0.992900
     21 N21          9.6530     2.3990    -6.5770 nb         1 34W      -0.828000
     22 C22         10.0810     2.0260    -7.7740 ca         1 34W       0.572200
     23 C23         10.5750     2.9790    -8.6420 ca         1 34W      -0.560900
     24 C24         10.6060     4.3110    -8.2230 ca         1 34W       0.811200
     25 N25         10.1560     4.6150    -7.0100 nb         1 34W      -0.863000
     26 N26         11.0940     5.3000    -9.0600 nu         1 34W      -0.873900
     27 C27         11.1220     6.6940    -8.6090 cy         1 34W       0.216500
     28 C28         11.0930     7.7140    -9.7590 cy         1 34W      -0.114900
     29 C29         12.6280     7.6310    -9.7680 cy         1 34W      -0.106400
     30 C30         12.5350     7.2110    -8.2910 cy         1 34W      -0.114900
     31 C31         11.0710     2.5900   -10.0120 c3         1 34W       0.690200
     32 F32         10.9330     1.2090   -10.1830 f          1 34W      -0.226967
     33 F33         10.3210     3.2580   -10.9860 f          1 34W      -0.226967
     34 F34         12.4190     2.9430   -10.1370 f          1 34W      -0.226967
     35 H1          -0.3610     0.8830    -0.5130 hc         1 34W       0.062033
     36 H2          -0.3610     0.0030     1.0210 hc         1 34W       0.062033
     37 H3          -0.3610    -0.8860    -0.5080 hc         1 34W       0.062033
     38 H4           1.6800    -0.0010    -2.0340 hn         1 34W       0.339500
     39 H5           4.0070     0.8850    -0.6580 h1         1 34W       0.071200
     40 H6           4.0070    -0.8840    -0.6570 h1         1 34W       0.071200
     41 H7           6.4460     0.0490    -0.8560 h1         1 34W       0.089700
     42 H8           6.9920    -2.1700    -1.9400 hc         1 34W       0.057700
     43 H9           8.4700    -1.2110    -2.2150 hc         1 34W       0.057700
     44 H10          6.5720    -2.1720    -4.2190 hc         1 34W       0.061200
     45 H11          8.0460    -1.2100    -4.4940 hc         1 34W       0.061200
     46 H12          5.6690     0.0420    -5.0320 h1         1 34W       0.106700
     47 H13          8.4970     2.0990    -0.8820 ha         1 34W       0.135000
     48 H14          9.5530     3.7980    -2.3300 ha         1 34W       0.137000
     49 H15          7.5870     2.0970    -5.7430 ha         1 34W       0.156000
     50 H16          9.3200     4.9650    -4.6280 hn         1 34W       0.470800
     51 H17         10.0430     0.9840    -8.0680 h4         1 34W       0.045100
     52 H18         11.4010     5.0670    -9.9830 hn         1 34W       0.461800
     53 H19         10.4070     6.9240    -7.8280 h1         1 34W       0.091700
     54 H20         10.6420     7.3210   -10.6630 hc         1 34W       0.063450
     55 H21         10.7220     8.6850    -9.4550 hc         1 34W       0.063450
     56 H22         13.1040     8.5950    -9.9040 hc         1 34W       0.055200
     57 H23         13.0070     6.8450   -10.4090 hc         1 34W       0.055200
     58 H24         12.5340     8.0530    -7.6100 hc         1 34W       0.063450
     59 H25         13.2270     6.4190    -8.0320 hc         1 34W       0.063450
@<TRIPOS>BOND
     1    11    10 1   
     2    11    12 1   
     3    10     9 1   
     4    12     8 1   
     5    12    13 1   
     6     3     2 2   
     7     8     9 1   
     8     8     6 1   
     9    13    18 ar  
    10    13    14 ar  
    11     5     6 1   
    12     5     4 1   
    13    18    17 ar  
    14     9    14 1   
    15     2     4 1   
    16     2     1 1   
    17     6     7 2   
    18    14    15 ar  
    19    17    19 1   
    20    17    16 ar  
    21    19    20 1   
    22    15    16 ar  
    23    21    20 ar  
    24    21    22 ar  
    25    20    25 ar  
    26    22    23 ar  
    27    25    24 ar  
    28    23    24 ar  
    29    23    31 1   
    30    24    26 1   
    31    34    31 1   
    32    30    27 1   
    33    30    29 1   
    34    31    32 1   
    35    31    33 1   
    36    26    27 1   
    37    27    28 1   
    38    29    28 1   
    39     1    35 1   
    40     1    36 1   
    41     1    37 1   
    42     4    38 1   
    43     5    39 1   
    44     5    40 1   
    45     9    41 1   
    46    10    42 1   
    47    10    43 1   
    48    11    44 1   
    49    11    45 1   
    50    12    46 1   
    51    15    47 1   
    52    16    48 1   
    53    18    49 1   
    54    19    50 1   
    55    22    51 1   
    56    26    52 1   
    57    27    53 1   
    58    28    54 1   
    59    28    55 1   
    60    29    56 1   
    61    29    57 1   
    62    30    58 1   
    63    30    59 1   
@<TRIPOS>SUBSTRUCTURE
     1 34W         1 TEMP              0 ****  ****    0 ROOT
