@<TRIPOS>MOLECULE
34W
   59    63     1     0     0
SMALL
bcc


@<TRIPOS>ATOM
      1 C01          0.0000     0.0000     0.0000 c3         1 34W      -0.064100
      2 C02          1.5070     0.0000     0.0000 c          1 34W       0.570100
      3 O03          2.1140     0.0000     1.0490 o          1 34W      -0.660100
      4 N04          2.1810    -0.0000    -1.1680 ns         1 34W      -0.193900
      5 C05          3.6460    -0.0000    -1.1680 c3         1 34W      -0.019000
      6 C06          4.1480    -0.0010    -2.5890 c          1 34W       0.620100
      7 O07          3.3600    -0.0010    -3.5110 o          1 34W      -0.656100
      8 N08          5.4730    -0.0020    -2.8350 n          1 34W      -0.187800
      9 C09          6.6660    -0.0020    -1.9160 c3         1 34W       0.101000
     10 C10          7.4070    -1.2850    -2.4070 c3         1 34W      -0.035400
     11 C11          7.1230    -1.2850    -3.9310 c3         1 34W      -0.038400
     12 C12          6.2550    -0.0090    -4.1230 c3         1 34W       0.119000
     13 C13          7.2080     1.1580    -3.8660 ca         1 34W      -0.103300
     14 C14          7.4650     1.1620    -2.4980 ca         1 34W      -0.138300
     15 C15          8.3010     2.1020    -1.9470 ca         1 34W      -0.047000
     16 C16          8.8920     3.0550    -2.7600 ca         1 34W      -0.126000
     17 C17          8.6390     3.0580    -4.1260 ca         1 34W      -0.001400
     18 C18          7.7870     2.0990    -4.6790 ca         1 34W      -0.057000
     19 N19          9.2370     4.0200    -4.9450 nu         1 34W      -0.274300
     20 C20          9.6940     3.6710    -6.2040 ca         1 34W       0.764900
     21 N21          9.6530     2.3990    -6.5770 nb         1 34W      -0.745000
     22 C22         10.0810     2.0260    -7.7740 ca         1 34W       0.587200
     23 C23         10.5750     2.9790    -8.6420 ca         1 34W      -0.606900
     24 C24         10.6060     4.3110    -8.2230 ca         1 34W       0.639200
     25 N25         10.1560     4.6150    -7.0100 nb         1 34W      -0.767000
     26 N26         11.0940     5.3000    -9.0600 nu         1 34W      -0.448900
     27 C27         11.1220     6.6940    -8.6090 cy         1 34W       0.100500
     28 C28         11.0930     7.7140    -9.7590 cy         1 34W      -0.051400
     29 C29         12.6280     7.6310    -9.7680 cy         1 34W      -0.049400
     30 C30         12.5350     7.2110    -8.2910 cy         1 34W      -0.051400
     31 C31         11.0710     2.5900   -10.0120 c3         1 34W       0.667200
     32 F32         10.9330     1.2090   -10.1830 f          1 34W      -0.211633
     33 F33         10.3210     3.2580   -10.9860 f          1 34W      -0.211633
     34 F34         12.4190     2.9430   -10.1370 f          1 34W      -0.211633
     35 H1          -0.3610     0.8830    -0.5130 hc         1 34W       0.023033
     36 H2          -0.3610     0.0030     1.0210 hc         1 34W       0.023033
     37 H3          -0.3610    -0.8860    -0.5080 hc         1 34W       0.023033
     38 H4           1.6800    -0.0010    -2.0340 hn         1 34W       0.203500
     39 H5           4.0070     0.8850    -0.6580 h1         1 34W       0.039700
     40 H6           4.0070    -0.8840    -0.6570 h1         1 34W       0.039700
     41 H7           6.4460     0.0490    -0.8560 h1         1 34W       0.055700
     42 H8           6.9920    -2.1700    -1.9400 hc         1 34W       0.027700
     43 H9           8.4700    -1.2110    -2.2150 hc         1 34W       0.027700
     44 H10          6.5720    -2.1720    -4.2190 hc         1 34W       0.030700
     45 H11          8.0460    -1.2100    -4.4940 hc         1 34W       0.030700
     46 H12          5.6690     0.0420    -5.0320 h1         1 34W       0.069700
     47 H13          8.4970     2.0990    -0.8820 ha         1 34W       0.106000
     48 H14          9.5530     3.7980    -2.3300 ha         1 34W       0.110000
     49 H15          7.5870     2.0970    -5.7430 ha         1 34W       0.131000
     50 H16          9.3200     4.9650    -4.6280 hn         1 34W       0.294800
     51 H17         10.0430     0.9840    -8.0680 h4         1 34W      -0.006900
     52 H18         11.4010     5.0670    -9.9830 hn         1 34W       0.306800
     53 H19         10.4070     6.9240    -7.8280 h1         1 34W       0.066700
     54 H20         10.6420     7.3210   -10.6630 hc         1 34W       0.032700
     55 H21         10.7220     8.6850    -9.4550 hc         1 34W       0.032700
     56 H22         13.1040     8.5950    -9.9040 hc         1 34W       0.027200
     57 H23         13.0070     6.8450   -10.4090 hc         1 34W       0.027200
     58 H24         12.5340     8.0530    -7.6100 hc         1 34W       0.032700
     59 H25         13.2270     6.4190    -8.0320 hc         1 34W       0.032700
@<TRIPOS>BOND
     1     1     2 1   
     2     1    35 1   
     3     1    36 1   
     4     1    37 1   
     5     2     3 2   
     6     2     4 1   
     7     4     5 1   
     8     4    38 1   
     9     5     6 1   
    10     5    39 1   
    11     5    40 1   
    12     6     7 2   
    13     6     8 1   
    14     8     9 1   
    15     8    12 1   
    16     9    10 1   
    17     9    14 1   
    18     9    41 1   
    19    10    11 1   
    20    10    42 1   
    21    10    43 1   
    22    11    12 1   
    23    11    44 1   
    24    11    45 1   
    25    12    13 1   
    26    12    46 1   
    27    13    14 ar  
    28    13    18 ar  
    29    14    15 ar  
    30    15    16 ar  
    31    15    47 1   
    32    16    17 ar  
    33    16    48 1   
    34    17    18 ar  
    35    17    19 1   
    36    18    49 1   
    37    19    20 1   
    38    19    50 1   
    39    20    21 ar  
    40    20    25 ar  
    41    21    22 ar  
    42    22    23 ar  
    43    22    51 1   
    44    23    24 ar  
    45    23    31 1   
    46    24    25 ar  
    47    24    26 1   
    48    26    27 1   
    49    26    52 1   
    50    27    28 1   
    51    27    30 1   
    52    27    53 1   
    53    28    29 1   
    54    28    54 1   
    55    28    55 1   
    56    29    30 1   
    57    29    56 1   
    58    29    57 1   
    59    30    58 1   
    60    30    59 1   
    61    31    32 1   
    62    31    33 1   
    63    31    34 1   
@<TRIPOS>SUBSTRUCTURE
     1 34W         1 TEMP              0 ****  ****    0 ROOT
