@<TRIPOS>MOLECULE
34X
   37    39     1     0     0
SMALL
bcc


@<TRIPOS>ATOM
      1 FAP          0.0000     0.0000     0.0000 f          1 34X      -0.129900
      2 CAO          1.3500     0.0000     0.0000 ca         1 34X       0.063900
      3 CAN          2.0430     0.0000     1.1960 ca         1 34X      -0.111000
      4 CAM          3.4260    -0.0000     1.1960 ca         1 34X      -0.091000
      5 CAA          4.1200    -0.0020     0.0010 ca         1 34X      -0.086000
      6 CAB          3.4350    -0.0020    -1.1990 ca         1 34X      -0.096000
      7 CAC          2.0470    -0.0080    -1.2040 ca         1 34X      -0.106400
      8 NAD          1.3490    -0.0150    -2.4180 ns         1 34X      -0.022100
      9 CAE          1.9340    -0.5040    -3.5300 c          1 34X       0.575100
     10 OAQ          3.0260    -1.0340    -3.4580 o          1 34X      -0.680100
     11 NAF          1.3090    -0.4070    -4.7190 ns         1 34X      -0.210200
     12 NAG          1.9170    -0.9170    -5.8740 na         1 34X       0.287500
     13 CAH          3.1410    -1.5370    -5.9430 cc         1 34X      -0.396600
     14 CAR          1.4020    -0.8940    -7.1330 cc         1 34X       0.302400
     15 NAW          0.1770    -0.3590    -7.4930 nv         1 34X      -0.575500
     16 NAS          2.2560    -1.4620    -7.9490 nd         1 34X      -0.618000
     17 CAI          3.3410    -1.8690    -7.2420 cd         1 34X       0.354800
     18 CAJ          4.5330    -2.5600    -7.7930 ca         1 34X      -0.095500
     19 CAK          4.6090    -2.8420    -9.1550 ca         1 34X      -0.092500
     20 CAL          5.7210    -3.4850    -9.6620 ca         1 34X      -0.105000
     21 CAV          6.7570    -3.8470    -8.8210 ca         1 34X      -0.108000
     22 CAU          6.6860    -3.5700    -7.4680 ca         1 34X      -0.105000
     23 CAT          5.5830    -2.9220    -6.9500 ca         1 34X      -0.092500
     24 HAN          1.5020     0.0010     2.1350 ha         1 34X       0.119000
     25 HAM          3.9670    -0.0000     2.1350 ha         1 34X       0.108000
     26 HAA          5.2030     0.0000     0.0040 ha         1 34X       0.110000
     27 HAB          3.9800    -0.0060    -2.1350 ha         1 34X       0.161000
     28 HAD          0.4230     0.3620    -2.4650 hn         1 34X       0.168500
     29 HAF          0.4360     0.0770    -4.7870 hn         1 34X       0.197500
     30 HAH          3.8180    -1.7220    -5.1180 h4         1 34X       0.207000
     31 HAW1         0.1230     0.3100    -8.2360 hn         1 34X       0.270300
     32 HAW2        -0.6580    -0.6720    -7.0410 hn         1 34X       0.270300
     33 HAK          3.7980    -2.5590    -9.8150 ha         1 34X       0.115000
     34 HAT          5.5280    -2.7050    -5.8900 ha         1 34X       0.115000
     35 HAL          5.7820    -3.7050   -10.7210 ha         1 34X       0.100000
     36 HAV          7.6270    -4.3540    -9.2230 ha         1 34X       0.098000
     37 HAU          7.5020    -3.8540    -6.8150 ha         1 34X       0.100000
@<TRIPOS>BOND
     1     1     2 1   
     2     2     3 ar  
     3     2     7 ar  
     4     3     4 ar  
     5     3    24 1   
     6     4     5 ar  
     7     4    25 1   
     8     5     6 ar  
     9     5    26 1   
    10     6     7 ar  
    11     6    27 1   
    12     7     8 1   
    13     8     9 1   
    14     8    28 1   
    15     9    10 2   
    16     9    11 1   
    17    11    12 1   
    18    11    29 1   
    19    12    13 1   
    20    12    14 1   
    21    13    17 2   
    22    13    30 1   
    23    14    15 1   
    24    14    16 2   
    25    15    31 1   
    26    15    32 1   
    27    16    17 1   
    28    17    18 1   
    29    18    19 ar  
    30    18    23 ar  
    31    19    20 ar  
    32    19    33 1   
    33    20    21 ar  
    34    20    35 1   
    35    21    22 ar  
    36    21    36 1   
    37    22    23 ar  
    38    22    37 1   
    39    23    34 1   
@<TRIPOS>SUBSTRUCTURE
     1 34X         1 TEMP              0 ****  ****    0 ROOT
