@<TRIPOS>MOLECULE
molecule
   14    14     1     0     0
SMALL
bcc


@<TRIPOS>ATOM
      1 Cl4          0.0000     0.0000     0.0000 cl         1 34Z      -0.146400
      2 C4           1.7360     0.0000     0.0000 ca         1 34Z       0.011400
      3 C5           2.4250     0.0000     1.2010 ca         1 34Z      -0.146000
      4 C6           3.8040     0.0000     1.2080 ca         1 34Z      -0.100000
      5 C3           2.4270    -0.0060    -1.2020 ca         1 34Z       0.010400
      6 Cl3          1.5540    -0.0130    -2.7030 cl         1 34Z      -0.139400
      7 C2           3.8060    -0.0070    -1.2080 ca         1 34Z      -0.081000
      8 C1           4.5060    -0.0010     0.0010 ca         1 34Z      -0.090600
      9 C            5.9830    -0.0010     0.0020 c          1 34Z       0.881200
     10 O2           6.5900    -0.0000     1.0550 o          1 34Z      -0.828300
     11 O1           6.6570    -0.0020    -1.1640 o          1 34Z      -0.828300
     12 H5           1.8800     0.0010     2.1380 ha         1 34Z       0.126000
     13 H6           4.3420     0.0020     2.1480 ha         1 34Z       0.156000
     14 H2           4.3450    -0.0100    -2.1480 ha         1 34Z       0.175000
@<TRIPOS>BOND
     1     1     2 1
     2     2     3 ar
     3     2     5 ar
     4     3     4 ar
     5     4     8 ar
     6     5     6 1
     7     5     7 ar
     8     7     8 ar
     9     8     9 1
    10     9    10 1
    11     9    11 1
    12     3    12 1
    13     4    13 1
    14     7    14 1
@<TRIPOS>SUBSTRUCTURE
     1 34Z         1 TEMP              0 ****  ****    0 ROOT
