@<TRIPOS>MOLECULE
34Z
   14    14     1     0     0
SMALL
bcc


@<TRIPOS>ATOM
      1 Cl4        -0.0040   -0.0030    0.0330 cl        1 34Z     -0.134400
      2 C4          1.7040   -0.0030   -0.0060 ca        1 34Z     -0.000600
      3 C5          2.4080    0.0010    1.2030 ca        1 34Z     -0.149000
      4 C6          3.8000    0.0010    1.1920 ca        1 34Z     -0.100000
      5 C3          2.4020   -0.0060   -1.2200 ca        1 34Z      0.000400
      6 Cl3         1.5660   -0.0110   -2.7090 cl        1 34Z     -0.129400
      7 C2          3.8000   -0.0060   -1.2220 ca        1 34Z     -0.095000
      8 C1          4.5050   -0.0020   -0.0160 ca        1 34Z     -0.116600
      9 C           6.0300   -0.0020   -0.0170 c         1 34Z      0.910200
     10 O2          6.6140    0.0000    1.1020 o         1 34Z     -0.822300
     11 O1          6.6170   -0.0040   -1.1340 o         1 34Z     -0.822300
     12 H5          1.8600    0.0030    2.1550 ha        1 34Z      0.126000
     13 H6          4.3780    0.0040    2.1310 ha        1 34Z      0.161000
     14 H2          4.3740   -0.0080   -2.1650 ha        1 34Z      0.172000
@<TRIPOS>BOND
     1    1    2 1   
     2    2    3 ar  
     3    2    5 ar  
     4    3    4 ar  
     5    3   12 1   
     6    4    8 ar  
     7    4   13 1   
     8    5    6 1   
     9    5    7 ar  
    10    7    8 ar  
    11    7   14 1   
    12    8    9 1   
    13    9   10 1   
    14    9   11 1   
@<TRIPOS>SUBSTRUCTURE
     1 34Z         1 TEMP              0 ****  ****    0 ROOT
