@<TRIPOS>MOLECULE
351
   68    73     1     0     0
SMALL
bcc


@<TRIPOS>ATOM
      1 N1           0.0000     0.0000     0.0000 nz         1 351       0.069400
      2 C2           1.4690     0.0000     0.0000 c3         1 351       0.044100
      3 C3           1.9720     0.0000     1.4200 ca         1 351      -0.243300
      4 C4           2.2020    -1.2000     2.0690 ca         1 351      -0.054500
      5 C5           2.6630    -1.2060     3.3700 ca         1 351      -0.104000
      6 C6           2.8960    -0.0010     4.0290 cp         1 351       0.078000
      7 C7           2.6630     1.2040     3.3710 ca         1 351      -0.104000
      8 C8           2.2080     1.1980     2.0680 ca         1 351      -0.054500
      9 C9           3.3910    -0.0010     5.4290 cp         1 351      -0.249300
     10 C10          3.6270    -1.2060     6.0960 ca         1 351       0.430200
     11 N11          4.0650    -1.2280     7.3350 nb         1 351      -0.558000
     12 C12          4.3060    -0.1130     8.0130 ca         1 351       0.240800
     13 N13          4.7570     0.1270     9.2900 na         1 351       0.286900
     14 C14          4.8390     1.4700     9.5200 cc         1 351      -0.247100
     15 C15          4.4480     2.1500     8.4150 cd         1 351      -0.059400
     16 C16          4.3920     3.6220     8.2530 ca         1 351      -0.002800
     17 C17          4.9810     4.2270     7.1430 ca         1 351      -0.121000
     18 C18          4.9280     5.5980     6.9930 ca         1 351      -0.081000
     19 C19          4.2910     6.3760     7.9420 ca         1 351      -0.113000
     20 C20          3.7020     5.7820     9.0520 ca         1 351      -0.066400
     21 N21          3.0580     6.5740    10.0100 ns         1 351      -0.055100
     22 C22          3.5030     7.8210    10.2620 c          1 351       0.555100
     23 O23          4.3610     8.3160     9.5560 o          1 351      -0.690100
     24 N24          2.9970     8.5210    11.2980 ns         1 351      -0.027100
     25 C25          3.3290     9.8720    11.4590 ca         1 351      -0.120400
     26 C26          4.5710    10.3360    11.0550 ca         1 351      -0.082000
     27 C27          4.8970    11.6700    11.2150 ca         1 351      -0.119000
     28 C28          3.9850    12.5450    11.7770 ca         1 351      -0.069000
     29 C29          2.7430    12.0890    12.1810 ca         1 351      -0.181000
     30 C30          2.4080    10.7550    12.0200 ca         1 351       0.115100
     31 O31          1.1870    10.3070    12.4130 os         1 351      -0.238200
     32 C32          0.2740    11.2240    12.8280 ca         1 351       0.114100
     33 C33         -0.4290    11.9760    11.8990 ca         1 351      -0.121500
     34 C34         -1.3560    12.9080    12.3230 ca         1 351      -0.089500
     35 C35         -1.5830    13.0920    13.6750 ca         1 351      -0.103000
     36 C36         -0.8840    12.3440    14.6050 ca         1 351      -0.089500
     37 C37          0.0400    11.4060    14.1850 ca         1 351      -0.121500
     38 C38          3.7460     4.4050     9.2070 ca         1 351      -0.136000
     39 C39          4.0920     1.1390     7.4060 ca         1 351      -0.213100
     40 C40          3.6330     1.2000     6.0930 ca         1 351       0.023000
     41 HN1         -0.3340     0.8220     0.4630 hn         1 351       0.222467
     42 HN1A        -0.3340    -0.0100    -0.9440 hn         1 351       0.222467
     43 H2           1.8300    -0.8840    -0.5110 hx         1 351       0.079700
     44 H2A          1.8300     0.8840    -0.5110 hx         1 351       0.079700
     45 H4           2.0340    -2.1370     1.5510 ha         1 351       0.105000
     46 H5           2.8960    -2.1440     3.8580 ha         1 351       0.135000
     47 H7           2.9100     2.1420     3.8540 ha         1 351       0.135000
     48 H8           2.0410     2.1350     1.5500 ha         1 351       0.105000
     49 H10          3.4450    -2.1420     5.5820 h4         1 351      -0.018900
     50 HN13         4.9920    -0.5830     9.9550 hn         1 351       0.127700
     51 H14          5.1670     1.9240    10.4470 h4         1 351       0.156000
     52 H17          5.4810     3.6200     6.3970 ha         1 351       0.105000
     53 H18          5.3850     6.0660     6.1300 ha         1 351       0.105000
     54 H19          4.2510     7.4510     7.8200 ha         1 351       0.164000
     55 HN21         2.2450     6.2290    10.4800 hn         1 351       0.164500
     56 HN24         2.4140     8.0650    11.9710 hn         1 351       0.167500
     57 H26          5.2880     9.6530    10.6150 ha         1 351       0.159000
     58 H27          5.8680    12.0310    10.8990 ha         1 351       0.109000
     59 H28          4.2450    13.5890    11.9020 ha         1 351       0.104000
     60 H29          2.0300    12.7770    12.6190 ha         1 351       0.128000
     61 H33         -0.2850    11.7990    10.8400 ha         1 351       0.117000
     62 H34         -1.9180    13.4830    11.5970 ha         1 351       0.108000
     63 H35         -2.3100    13.8240    14.0070 ha         1 351       0.107000
     64 H36         -1.0610    12.4930    15.6630 ha         1 351       0.108000
     65 H37          0.3670    10.7630    14.9920 ha         1 351       0.117000
     66 H38          3.2880     3.9410    10.0720 ha         1 351       0.109000
     67 H40          3.2240     2.1250     5.7050 ha         1 351       0.116000
     68 H13         -0.3340    -0.8010     0.4990 hn         1 351       0.222467
@<TRIPOS>BOND
     1     1     2 1   
     2     1    41 1   
     3     1    42 1   
     4     1    68 1   
     5     2     3 1   
     6     2    43 1   
     7     2    44 1   
     8     3     4 ar  
     9     3     8 ar  
    10     4     5 ar  
    11     4    45 1   
    12     5     6 ar  
    13     5    46 1   
    14     6     7 ar  
    15     6     9 1   
    16     7     8 ar  
    17     7    47 1   
    18     8    48 1   
    19     9    10 ar  
    20     9    40 ar  
    21    10    11 ar  
    22    10    49 1   
    23    11    12 ar  
    24    12    13 1   
    25    12    39 ar  
    26    13    14 1   
    27    13    50 1   
    28    14    15 2   
    29    14    51 1   
    30    15    16 1   
    31    15    39 1   
    32    16    17 ar  
    33    16    38 ar  
    34    17    18 ar  
    35    17    52 1   
    36    18    19 ar  
    37    18    53 1   
    38    19    20 ar  
    39    19    54 1   
    40    20    21 1   
    41    20    38 ar  
    42    21    22 1   
    43    21    55 1   
    44    22    23 2   
    45    22    24 1   
    46    24    25 1   
    47    24    56 1   
    48    25    26 ar  
    49    25    30 ar  
    50    26    27 ar  
    51    26    57 1   
    52    27    28 ar  
    53    27    58 1   
    54    28    29 ar  
    55    28    59 1   
    56    29    30 ar  
    57    29    60 1   
    58    30    31 1   
    59    31    32 1   
    60    32    33 ar  
    61    32    37 ar  
    62    33    34 ar  
    63    33    61 1   
    64    34    35 ar  
    65    34    62 1   
    66    35    36 ar  
    67    35    63 1   
    68    36    37 ar  
    69    36    64 1   
    70    37    65 1   
    71    38    66 1   
    72    39    40 ar  
    73    40    67 1   
@<TRIPOS>SUBSTRUCTURE
     1 351         1 TEMP              0 ****  ****    0 ROOT
