@<TRIPOS>MOLECULE
molecule
   68    73     1     0     0
SMALL
bcc


@<TRIPOS>ATOM
      1 N1           0.0000     0.0000     0.0000 nz         1 351      -0.811600
      2 C2           1.4690     0.0000     0.0000 c3         1 351       0.162100
      3 C3           1.9720     0.0000     1.4200 ca         1 351      -0.221300
      4 C4           2.2020    -1.2000     2.0690 ca         1 351      -0.089500
      5 C5           2.6630    -1.2060     3.3700 ca         1 351      -0.126500
      6 C6           2.8960    -0.0010     4.0290 cp         1 351       0.060000
      7 C7           2.6630     1.2040     3.3710 ca         1 351      -0.126500
      8 C8           2.2080     1.1980     2.0680 ca         1 351      -0.089500
      9 C9           3.3910    -0.0010     5.4290 cp         1 351      -0.247300
     10 C10          3.6270    -1.2060     6.0960 ca         1 351       0.471200
     11 N11          4.0650    -1.2280     7.3350 nb         1 351      -0.698000
     12 C12          4.3060    -0.1130     8.0130 ca         1 351       0.484800
     13 N13          4.7570     0.1270     9.2900 na         1 351      -0.265100
     14 C14          4.8390     1.4700     9.5200 cc         1 351      -0.067100
     15 C15          4.4480     2.1500     8.4150 cd         1 351      -0.085400
     16 C16          4.3920     3.6220     8.2530 ca         1 351      -0.013800
     17 C17          4.9810     4.2270     7.1430 ca         1 351      -0.142000
     18 C18          4.9280     5.5980     6.9930 ca         1 351      -0.114000
     19 C19          4.2910     6.3760     7.9420 ca         1 351      -0.128000
     20 C20          3.7020     5.7820     9.0520 ca         1 351       0.076600
     21 N21          3.0580     6.5740    10.0100 ns         1 351      -0.491100
     22 C22          3.5030     7.8210    10.2620 c          1 351       0.786100
     23 O23          4.3610     8.3160     9.5560 o          1 351      -0.643100
     24 N24          2.9970     8.5210    11.2980 ns         1 351      -0.475100
     25 C25          3.3290     9.8720    11.4590 ca         1 351       0.038600
     26 C26          4.5710    10.3360    11.0550 ca         1 351      -0.104000
     27 C27          4.8970    11.6700    11.2150 ca         1 351      -0.145000
     28 C28          3.9850    12.5450    11.7770 ca         1 351      -0.106000
     29 C29          2.7430    12.0890    12.1810 ca         1 351      -0.190000
     30 C30          2.4080    10.7550    12.0200 ca         1 351       0.105100
     31 O31          1.1870    10.3070    12.4130 os         1 351      -0.264200
     32 C32          0.2740    11.2240    12.8280 ca         1 351       0.106100
     33 C33         -0.4290    11.9760    11.8990 ca         1 351      -0.139500
     34 C34         -1.3560    12.9080    12.3230 ca         1 351      -0.121500
     35 C35         -1.5830    13.0920    13.6750 ca         1 351      -0.128000
     36 C36         -0.8840    12.3440    14.6050 ca         1 351      -0.121500
     37 C37          0.0400    11.4060    14.1850 ca         1 351      -0.139500
     38 C38          3.7460     4.4050     9.2070 ca         1 351      -0.159000
     39 C39          4.0920     1.1390     7.4060 ca         1 351      -0.209100
     40 C40          3.6330     1.2000     6.0930 ca         1 351      -0.013000
     41 HN1         -0.3340     0.8220     0.4630 hn         1 351       0.453133
     42 HN1A        -0.3340    -0.0100    -0.9440 hn         1 351       0.453133
     43 H2           1.8300    -0.8840    -0.5110 hx         1 351       0.109700
     44 H2A          1.8300     0.8840    -0.5110 hx         1 351       0.109700
     45 H4           2.0340    -2.1370     1.5510 ha         1 351       0.134000
     46 H5           2.8960    -2.1440     3.8580 ha         1 351       0.160500
     47 H7           2.9100     2.1420     3.8540 ha         1 351       0.160500
     48 H8           2.0410     2.1350     1.5500 ha         1 351       0.134000
     49 H10          3.4450    -2.1420     5.5820 h4         1 351       0.025100
     50 HN13         4.9920    -0.5830     9.9550 hn         1 351       0.316700
     51 H14          5.1670     1.9240    10.4470 h4         1 351       0.188000
     52 H17          5.4810     3.6200     6.3970 ha         1 351       0.130000
     53 H18          5.3850     6.0660     6.1300 ha         1 351       0.137000
     54 H19          4.2510     7.4510     7.8200 ha         1 351       0.183000
     55 HN21         2.2450     6.2290    10.4800 hn         1 351       0.323500
     56 HN24         2.4140     8.0650    11.9710 hn         1 351       0.329500
     57 H26          5.2880     9.6530    10.6150 ha         1 351       0.180000
     58 H27          5.8680    12.0310    10.8990 ha         1 351       0.138000
     59 H28          4.2450    13.5890    11.9020 ha         1 351       0.135000
     60 H29          2.0300    12.7770    12.6190 ha         1 351       0.149000
     61 H33         -0.2850    11.7990    10.8400 ha         1 351       0.145000
     62 H34         -1.9180    13.4830    11.5970 ha         1 351       0.138000
     63 H35         -2.3100    13.8240    14.0070 ha         1 351       0.136000
     64 H36         -1.0610    12.4930    15.6630 ha         1 351       0.138000
     65 H37          0.3670    10.7630    14.9920 ha         1 351       0.145000
     66 H38          3.2880     3.9410    10.0720 ha         1 351       0.132000
     67 H40          3.2240     2.1250     5.7050 ha         1 351       0.145000
     68 H13         -0.3340    -0.8010     0.4990 hn         1 351       0.453133
@<TRIPOS>BOND
     1     1     2 1   
     2     2     3 1   
     3     3     4 ar  
     4     3     8 ar  
     5     4     5 ar  
     6     5     6 ar  
     7     6     7 ar  
     8     6     9 1   
     9     7     8 ar  
    10     9    10 ar  
    11     9    40 ar  
    12    10    11 ar  
    13    11    12 ar  
    14    12    13 1   
    15    12    39 ar  
    16    13    14 1   
    17    14    15 2   
    18    15    16 1   
    19    15    39 1   
    20    16    17 ar  
    21    16    38 ar  
    22    17    18 ar  
    23    18    19 ar  
    24    19    20 ar  
    25    20    21 1   
    26    20    38 ar  
    27    21    22 1   
    28    22    23 2   
    29    22    24 1   
    30    24    25 1   
    31    25    26 ar  
    32    25    30 ar  
    33    26    27 ar  
    34    27    28 ar  
    35    28    29 ar  
    36    29    30 ar  
    37    30    31 1   
    38    31    32 1   
    39    32    33 ar  
    40    32    37 ar  
    41    33    34 ar  
    42    34    35 ar  
    43    35    36 ar  
    44    36    37 ar  
    45    39    40 ar  
    46     1    41 1   
    47     1    42 1   
    48     2    43 1   
    49     2    44 1   
    50     4    45 1   
    51     5    46 1   
    52     7    47 1   
    53     8    48 1   
    54    10    49 1   
    55    13    50 1   
    56    14    51 1   
    57    17    52 1   
    58    18    53 1   
    59    19    54 1   
    60    21    55 1   
    61    24    56 1   
    62    26    57 1   
    63    27    58 1   
    64    28    59 1   
    65    29    60 1   
    66    33    61 1   
    67    34    62 1   
    68    35    63 1   
    69    36    64 1   
    70    37    65 1   
    71    38    66 1   
    72    40    67 1   
    73    68     1 1   
@<TRIPOS>SUBSTRUCTURE
     1 351         1 TEMP              0 ****  ****    0 ROOT
