@<TRIPOS>MOLECULE
352
   40    41     1     0     0
SMALL
bcc


@<TRIPOS>ATOM
      1 C1           1.5300     0.0000     0.0000 c3         1 352       0.206800
      2 C2           2.0400    -1.3010     0.6250 c3         1 352      -0.062100
      3 C3          -5.1670    -4.1790     2.6560 ca         1 352      -0.066500
      4 C4          -6.2520    -4.3490     3.4940 ca         1 352      -0.125000
      5 C5          -6.1720    -3.9540     4.8190 ca         1 352       0.112900
      6 C6          -5.0050    -3.3890     5.3030 ca         1 352      -0.125000
      7 C7          -3.9210    -3.2200     4.4640 ca         1 352      -0.066500
      8 C8          -4.0020    -3.6140     3.1410 ca         1 352      -0.127300
      9 N9          -2.1820    -2.1380     2.5060 nu         1 352      -0.361200
     10 C10         -2.8180    -3.4290     2.2260 c3         1 352       0.177800
     11 C11         -1.4540    -1.5120     1.5370 c2         1 352       0.573100
     12 S12         -0.6480     0.0000     1.7060 ss         1 352      -0.311300
     13 C13          0.0000     0.0000     0.0000 c3         1 352      -0.060900
     14 C14         -0.5390    -1.3030    -0.5540 c          1 352       0.746500
     15 N15         -1.2460    -1.9650     0.3240 ne         1 352      -0.729100
     16 O16         -0.3320    -1.6910    -1.6870 o          1 352      -0.560100
     17 C17         -0.5410     1.1960    -0.7870 c3         1 352       0.028900
     18 F18         -7.2340    -4.1210     5.6390 f          1 352      -0.124900
     19 C19         -1.8100    -4.5550     2.4610 c3         1 352      -0.013100
     20 O20          2.0070     1.1120     0.7590 oh         1 352      -0.586800
     21 C21          2.0400     0.1090    -1.4380 c3         1 352      -0.062100
     22 H2           3.1200    -1.2670     0.6970 hc         1 352       0.026367
     23 H2A          1.6150    -1.4160     1.6150 hc         1 352       0.026367
     24 H2B          1.7450    -2.1390     0.0050 hc         1 352       0.026367
     25 H3          -5.2290    -4.4880     1.6200 ha         1 352       0.111500
     26 H4          -7.1650    -4.7910     3.1140 ha         1 352       0.122500
     27 H6          -4.9420    -3.0800     6.3390 ha         1 352       0.122500
     28 H7          -3.0070    -2.7770     4.8420 ha         1 352       0.111500
     29 HN9         -2.2950    -1.7090     3.4030 hn         1 352       0.306800
     30 H10         -3.1510    -3.4510     1.1950 h1         1 352       0.070700
     31 H17         -0.0410     2.0990    -0.4600 hc         1 352       0.025367
     32 H17A        -1.6060     1.2900    -0.6140 hc         1 352       0.025367
     33 H17B        -0.3590     1.0450    -1.8440 hc         1 352       0.025367
     34 H19         -0.8660    -4.1340     2.7860 hc         1 352       0.018033
     35 H19A        -1.6610    -5.1050     1.5390 hc         1 352       0.018033
     36 H19B        -2.1880    -5.2250     3.2240 hc         1 352       0.018033
     37 HO20         2.9460     1.0640     0.8330 ho         1 352       0.400000
     38 H21          1.8100     1.0920    -1.8300 hc         1 352       0.026367
     39 H21A         1.5590    -0.6450    -2.0500 hc         1 352       0.026367
     40 H21B         3.1120    -0.0440    -1.4540 hc         1 352       0.026367
@<TRIPOS>BOND
     1     1     2 1   
     2     1    13 1   
     3     1    20 1   
     4     1    21 1   
     5     2    22 1   
     6     2    23 1   
     7     2    24 1   
     8     3     4 ar  
     9     3     8 ar  
    10     3    25 1   
    11     4     5 ar  
    12     4    26 1   
    13     5     6 ar  
    14     5    18 1   
    15     6     7 ar  
    16     6    27 1   
    17     7     8 ar  
    18     7    28 1   
    19     8    10 1   
    20     9    10 1   
    21     9    11 1   
    22     9    29 1   
    23    10    19 1   
    24    10    30 1   
    25    11    12 1   
    26    11    15 2   
    27    12    13 1   
    28    13    14 1   
    29    13    17 1   
    30    14    15 1   
    31    14    16 2   
    32    17    31 1   
    33    17    32 1   
    34    17    33 1   
    35    19    34 1   
    36    19    35 1   
    37    19    36 1   
    38    20    37 1   
    39    21    38 1   
    40    21    39 1   
    41    21    40 1   
@<TRIPOS>SUBSTRUCTURE
     1 352         1 TEMP              0 ****  ****    0 ROOT
