@<TRIPOS>MOLECULE
353
   55    58     1     0     0
SMALL
bcc


@<TRIPOS>ATOM
      1 C1           0.0000     0.0000     0.0000 ca         1 353      -0.041000
      2 C2           0.0020    -0.0000     2.4040 ca         1 353      -0.041000
      3 C3          -4.5120     5.2190    -1.7410 ca         1 353      -0.147000
      4 C4          -5.1830     6.3780    -2.0710 ca         1 353      -0.063000
      5 C5           1.3810     0.0000     0.0000 ca         1 353      -0.126000
      6 C6           1.3840    -0.0010     2.4000 ca         1 353      -0.126000
      7 C7          -5.7090     9.0380     0.0970 ca         1 353      -0.316300
      8 C8          -6.0120     4.8750     0.1080 ca         1 353      -0.145000
      9 C9          -5.4060    10.2100     0.7570 ca         1 353       0.449200
     10 C10         -0.6940     0.0000     1.2020 ca         1 353      -0.166400
     11 C11         -4.9250     4.4630    -0.6510 ca         1 353      -0.036400
     12 C12         -6.2710     6.7910    -1.3140 ca         1 353       0.033100
     13 C13         -6.6110     9.0690    -0.9680 ca         1 353       0.180100
     14 C14          2.0730     0.0000     1.1990 ca         1 353       0.131900
     15 C15         -6.6850     6.0370    -0.2240 ca         1 353       0.116900
     16 C16         -7.1720    10.2900    -1.3220 ca         1 353      -0.206900
     17 C17         -6.8170    11.4290    -0.6090 ca         1 353       0.535200
     18 C18         -4.1130    -1.1330     1.6860 cc         1 353      -0.261000
     19 C19         -2.7610    -1.0910     1.6670 cd         1 353      -0.104400
     20 C20         -4.1720     1.0920     0.7450 cd         1 353      -0.362400
     21 C21         -4.8570    -0.0360     1.2230 cc         1 353       0.299100
     22 C22         -2.7560     1.0800     0.7490 c          1 353       0.609700
     23 C23         -4.9080     2.2600     0.2510 c          1 353       0.620300
     24 C24         -8.3540    -0.2850     2.3280 c3         1 353      -0.001100
     25 C25         -6.8430    -0.1390     2.5160 c3         1 353       0.226400
     26 N26         -5.9560    11.3550     0.3960 nb         1 353      -0.617000
     27 N27         -2.0950    -0.0010     1.2040 n          1 353       0.263800
     28 N28         -7.3700    12.6570    -0.9520 nv         1 353      -0.655500
     29 N29         -4.2430     3.2860    -0.3170 ns         1 353      -0.058100
     30 O31         -6.1200     2.3040     0.3550 o          1 353      -0.637100
     31 O32         -6.9310     7.9350    -1.6400 os         1 353      -0.192200
     32 O33         -6.2090    -0.0650     1.2370 os         1 353      -0.297900
     33 F34          3.4250     0.0000     1.1980 f          1 353      -0.121900
     34 F35         -7.7440     6.4380     0.5130 f          1 353      -0.119900
     35 Cl36        -8.3000    10.3920    -2.6390 cl         1 353       0.013600
     36 H1          -0.5420     0.0000    -0.9380 ha         1 353       0.117000
     37 H2          -0.5370    -0.0010     3.3440 ha         1 353       0.117000
     38 H3          -3.6630     4.8970    -2.3320 ha         1 353       0.115000
     39 H4          -4.8610     6.9670    -2.9220 ha         1 353       0.118000
     40 H5           1.9230     0.0000    -0.9380 ha         1 353       0.126500
     41 H6           1.9280    -0.0010     3.3370 ha         1 353       0.126500
     42 H8          -6.3350     4.2860     0.9580 ha         1 353       0.159000
     43 H9          -4.7060    10.1910     1.5840 h4         1 353      -0.021900
     44 H18         -4.6220    -2.0130     2.0600 ha         1 353       0.139000
     45 H19         -2.1990    -1.9440     2.0270 h4         1 353       0.133000
     46 H24         -8.5520    -0.9790     1.5200 hc         1 353       0.014700
     47 H24A        -8.7970    -0.6600     3.2430 hc         1 353       0.014700
     48 H24B        -8.7830     0.6800     2.0880 hc         1 353       0.014700
     49 H25         -6.6340     0.7650     3.0750 h1         1 353      -0.006800
     50 H25A        -6.4620    -0.9960     3.0590 h1         1 353      -0.006800
     51 HN28        -6.9030    13.2500    -1.6090 hn         1 353       0.280300
     52 HN2A        -8.2200    12.9610    -0.5200 hn         1 353       0.280300
     53 HN29        -3.2900     3.1660    -0.5990 hn         1 353       0.226500
     54 O30         -2.1360     2.0470     0.3390 o          1 353      -0.716500
     55 H7          -5.2520     8.1040     0.4010 ha         1 353       0.135000
@<TRIPOS>BOND
     1     1     5 ar  
     2     1    10 ar  
     3     1    36 1   
     4     2     6 ar  
     5     2    10 ar  
     6     2    37 1   
     7     3     4 ar  
     8     3    11 ar  
     9     3    38 1   
    10     4    12 ar  
    11     4    39 1   
    12     5    14 ar  
    13     5    40 1   
    14     6    14 ar  
    15     6    41 1   
    16     7     9 ar  
    17     7    13 ar  
    18     7    55 1   
    19     8    11 ar  
    20     8    15 ar  
    21     8    42 1   
    22     9    26 ar  
    23     9    43 1   
    24    10    27 1   
    25    11    29 1   
    26    12    15 ar  
    27    12    31 1   
    28    13    16 ar  
    29    13    31 1   
    30    14    33 1   
    31    15    34 1   
    32    16    17 ar  
    33    16    35 1   
    34    17    26 ar  
    35    17    28 1   
    36    18    19 2   
    37    18    21 1   
    38    18    44 1   
    39    19    27 1   
    40    19    45 1   
    41    20    21 2   
    42    20    22 1   
    43    20    23 1   
    44    21    32 1   
    45    22    27 1   
    46    22    54 2   
    47    23    29 1   
    48    23    30 2   
    49    24    25 1   
    50    24    46 1   
    51    24    47 1   
    52    24    48 1   
    53    25    32 1   
    54    25    49 1   
    55    25    50 1   
    56    28    51 1   
    57    28    52 1   
    58    29    53 1   
@<TRIPOS>SUBSTRUCTURE
     1 353         1 TEMP              0 ****  ****    0 ROOT
