@<TRIPOS>MOLECULE
molecule
   55    58     1     0     0
SMALL
bcc


@<TRIPOS>ATOM
      1 C1           0.0000     0.0000     0.0000 ca         1 353      -0.082500
      2 C2           0.0020    -0.0000     2.4040 ca         1 353      -0.082500
      3 C3          -4.5120     5.2190    -1.7410 ca         1 353      -0.180000
      4 C4          -5.1830     6.3780    -2.0710 ca         1 353      -0.083000
      5 C5           1.3810     0.0000     0.0000 ca         1 353      -0.161000
      6 C6           1.3840    -0.0010     2.4000 ca         1 353      -0.161000
      7 C7          -5.7090     9.0380     0.0970 ca         1 353      -0.334300
      8 C8          -6.0120     4.8750     0.1080 ca         1 353      -0.178000
      9 C9          -5.4060    10.2100     0.7570 ca         1 353       0.459200
     10 C10         -0.6940     0.0000     1.2020 ca         1 353      -0.008400
     11 C11         -4.9250     4.4630    -0.6510 ca         1 353       0.106600
     12 C12         -6.2710     6.7910    -1.3140 ca         1 353       0.018100
     13 C13         -6.6110     9.0690    -0.9680 ca         1 353       0.176100
     14 C14          2.0730     0.0000     1.1990 ca         1 353       0.149900
     15 C15         -6.6850     6.0370    -0.2240 ca         1 353       0.146900
     16 C16         -7.1720    10.2900    -1.3220 ca         1 353      -0.132900
     17 C17         -6.8170    11.4290    -0.6090 ca         1 353       0.712200
     18 C18         -4.1130    -1.1330     1.6860 cc         1 353      -0.292000
     19 C19         -2.7610    -1.0910     1.6670 cd         1 353       0.050600
     20 C20         -4.1720     1.0920     0.7450 cd         1 353      -0.337400
     21 C21         -4.8570    -0.0360     1.2230 cc         1 353       0.286100
     22 C22         -2.7560     1.0800     0.7490 c          1 353       0.711700
     23 C23         -4.9080     2.2600     0.2510 c          1 353       0.700300
     24 C24         -8.3540    -0.2850     2.3280 c3         1 353      -0.092100
     25 C25         -6.8430    -0.1390     2.5160 c3         1 353       0.153400
     26 N26         -5.9560    11.3550     0.3960 nb         1 353      -0.726000
     27 N27         -2.0950    -0.0010     1.2040 n          1 353      -0.223200
     28 N28         -7.3700    12.6570    -0.9520 nv         1 353      -1.075500
     29 N29         -4.2430     3.2860    -0.3170 ns         1 353      -0.471100
     30 O31         -6.1200     2.3040     0.3550 o          1 353      -0.588100
     31 O32         -6.9310     7.9350    -1.6400 os         1 353      -0.216200
     32 O33         -6.2090    -0.0650     1.2370 os         1 353      -0.317900
     33 F34          3.4250     0.0000     1.1980 f          1 353      -0.132900
     34 F35         -7.7440     6.4380     0.5130 f          1 353      -0.124900
     35 Cl36        -8.3000    10.3920    -2.6390 cl         1 353      -0.080400
     36 H1          -0.5420     0.0000    -0.9380 ha         1 353       0.150000
     37 H2          -0.5370    -0.0010     3.3440 ha         1 353       0.150000
     38 H3          -3.6630     4.8970    -2.3320 ha         1 353       0.143000
     39 H4          -4.8610     6.9670    -2.9220 ha         1 353       0.152000
     40 H5           1.9230     0.0000    -0.9380 ha         1 353       0.156000
     41 H6           1.9280    -0.0010     3.3370 ha         1 353       0.156000
     42 H8          -6.3350     4.2860     0.9580 ha         1 353       0.180000
     43 H9          -4.7060    10.1910     1.5840 h4         1 353       0.026100
     44 H18         -4.6220    -2.0130     2.0600 ha         1 353       0.165000
     45 H19         -2.1990    -1.9440     2.0270 h4         1 353       0.167000
     46 H24         -8.5520    -0.9790     1.5200 hc         1 353       0.052700
     47 H24A        -8.7970    -0.6600     3.2430 hc         1 353       0.052700
     48 H24B        -8.7830     0.6800     2.0880 hc         1 353       0.052700
     49 H25         -6.6340     0.7650     3.0750 h1         1 353       0.032200
     50 H25A        -6.4620    -0.9960     3.0590 h1         1 353       0.032200
     51 HN28        -6.9030    13.2500    -1.6090 hn         1 353       0.441300
     52 HN2A        -8.2200    12.9610    -0.5200 hn         1 353       0.441300
     53 HN29        -3.2900     3.1660    -0.5990 hn         1 353       0.363500
     54 O30         -2.1360     2.0470     0.3390 o          1 353      -0.659500
     55 H7          -5.2520     8.1040     0.4010 ha         1 353       0.154000
@<TRIPOS>BOND
     1     1     5 ar  
     2     1    10 ar  
     3     2     6 ar  
     4     2    10 ar  
     5     3     4 ar  
     6     3    11 ar  
     7     4    12 ar  
     8     5    14 ar  
     9     6    14 ar  
    10     7     9 ar  
    11     7    13 ar  
    12     8    11 ar  
    13     8    15 ar  
    14     9    26 ar  
    15    10    27 1   
    16    11    29 1   
    17    12    15 ar  
    18    12    31 1   
    19    13    16 ar  
    20    13    31 1   
    21    14    33 1   
    22    15    34 1   
    23    16    17 ar  
    24    16    35 1   
    25    17    26 ar  
    26    17    28 1   
    27    18    19 2   
    28    18    21 1   
    29    19    27 1   
    30    20    21 2   
    31    20    22 1   
    32    20    23 1   
    33    21    32 1   
    34    22    27 1   
    35    22    54 2   
    36    23    29 1   
    37    23    30 2   
    38    24    25 1   
    39    25    32 1   
    40     1    36 1   
    41     2    37 1   
    42     3    38 1   
    43     4    39 1   
    44     5    40 1   
    45     6    41 1   
    46     7    55 1   
    47     8    42 1   
    48     9    43 1   
    49    18    44 1   
    50    19    45 1   
    51    24    46 1   
    52    24    47 1   
    53    24    48 1   
    54    25    49 1   
    55    25    50 1   
    56    28    51 1   
    57    28    52 1   
    58    29    53 1   
@<TRIPOS>SUBSTRUCTURE
     1 353         1 TEMP              0 ****  ****    0 ROOT
