@<TRIPOS>MOLECULE
molecule
   55    57     1     0     0
SMALL
bcc


@<TRIPOS>ATOM
      1 N2           0.0000     0.0000     0.0000 nv         1 354      -0.614100
      2 C2           1.3830     0.0000     0.0000 cc         1 354       0.253700
      3 N1           2.0150     0.0000     1.1570 nc         1 354      -0.221000
      4 C8A          3.3560    -0.0050     1.1970 cd         1 354       0.076000
      5 C4A          4.0740     0.0000    -0.0240 cd         1 354      -0.138000
      6 C5           5.4730     0.0010    -0.0040 cc         1 354      -0.036000
      7 C6           6.1290    -0.0040     1.1930 cc         1 354      -0.643000
      8 C7           5.4250    -0.0090     2.3930 cc         1 354      -0.053000
      9 C8           4.0610    -0.0100     2.4080 cd         1 354      -0.155000
     10 S9           7.9380    -0.0040     1.2200 s6         1 354       1.286400
     11 O91          7.9570     1.0090    -0.0950 oh         1 354      -0.623700
     12 O9           9.5980    -0.0330     1.2450 oh         1 354      -0.623700
     13 N10          8.4880     0.8060     2.6280 nu         1 354      -0.658500
     14 C11          9.6500     0.3020     3.3520 ca         1 354       0.054800
     15 C16         10.9200     0.7410     3.0100 ca         1 354      -0.121000
     16 C15         12.0270     0.2650     3.6960 ca         1 354      -0.107500
     17 C14         11.8650    -0.6510     4.7250 ca         1 354      -0.068300
     18 C13         10.5960    -1.0900     5.0680 ca         1 354      -0.107500
     19 C12          9.4870    -0.6140     4.3810 ca         1 354      -0.121000
     20 C17         13.0720    -1.0840     5.5580 c3         1 354       0.415600
     21 O17         13.5150    -2.3360     5.1210 oh         1 354      -0.586800
     22 N           12.6910    -1.1670     6.9580 n7         1 354      -0.795200
     23 CA          13.7630    -0.6360     7.7850 c3         1 354       0.036500
     24 CB          13.2290    -0.3440     9.1840 c3         1 354      -0.032400
     25 CG          12.3740     0.9210     9.1480 c3         1 354      -0.184400
     26 CD          11.9200     1.2670    10.5640 c          1 354       0.897600
     27 OE1         11.1010     2.2050    10.7510 o          1 354      -0.876300
     28 OE2         12.3600     0.6120    11.5450 o          1 354      -0.876300
     29 C           14.8920    -1.6600     7.8740 c          1 354       0.870600
     30 O           16.0260    -1.3110     8.2980 o          1 354      -0.857800
     31 OT          14.6760    -2.8630     7.5720 o          1 354      -0.857800
     32 C4           3.3410     0.0050    -1.2350 cd         1 354       0.292600
     33 O4           3.4160    -0.1680    -2.6230 oh         1 354      -0.579600
     34 N3           2.0200     0.0050    -1.1690 nc         1 354      -0.267000
     35 HN21        -0.5000    -0.8520    -0.1570 hn         1 354       0.281700
     36 HN22        -0.5000     0.8550     0.1430 hn         1 354       0.281700
     37 H5           6.0120    -0.0870    -0.9400 ha         1 354       0.142000
     38 H7           5.6240    -0.1550     3.4480 ha         1 354       0.153000
     39 H8           3.5270    -0.0100     3.3510 ha         1 354       0.149000
     40 H91          7.7280     1.8820     0.1770 ho         1 354       0.411500
     41 HO9          9.9250    -0.0810     0.3620 ho         1 354       0.411500
     42 H10          8.0380     1.6480     2.9280 hn         1 354       0.258700
     43 H16         11.0480     1.4560     2.2070 ha         1 354       0.116500
     44 H15         13.0190     0.6080     3.4290 ha         1 354       0.141500
     45 H13         10.4680    -1.8060     5.8710 ha         1 354       0.141500
     46 H12          8.4930    -0.9210     4.6800 ha         1 354       0.116500
     47 H17         13.8690    -0.3590     5.4430 h2         1 354       0.038700
     48 H1          14.1290    -2.2230     4.4140 ho         1 354       0.382000
     49 HN          12.5230    -2.1230     7.2020 hn         1 354       0.387800
     50 HA          14.1400     0.2790     7.3440 h1         1 354       0.036700
     51 HB1         12.6260    -1.1780     9.5210 hc         1 354       0.054700
     52 HB2         14.0590    -0.1990     9.8640 hc         1 354       0.054700
     53 HG1         11.5070     0.7530     8.5210 hc         1 354       0.020200
     54 HG2         12.9580     1.7400     8.7460 hc         1 354       0.020200
     55 HO4          3.4740     0.6750    -3.0420 ho         1 354       0.420000
@<TRIPOS>BOND
     1     1     2 2
     2     1    35 1
     3     1    36 1
     4     2     3 1
     5     2    34 1
     6     3     4 2
     7     4     5 1
     8     4     9 1
     9     5     6 2
    10     5    32 1
    11     6     7 1
    12     6    37 1
    13     7     8 1
    14     7    10 2
    15     8     9 2
    16     8    38 1
    17     9    39 1
    18    10    11 1
    19    10    12 1
    20    10    13 2
    21    11    40 1
    22    12    41 1
    23    13    14 1
    24    13    42 1
    25    14    15 ar
    26    14    19 ar
    27    15    16 ar
    28    15    43 1
    29    16    17 ar
    30    16    44 1
    31    17    18 ar
    32    17    20 1
    33    18    19 ar
    34    18    45 1
    35    19    46 1
    36    20    21 1
    37    20    22 1
    38    20    47 1
    39    21    48 1
    40    22    23 1
    41    22    49 1
    42    23    24 1
    43    23    29 1
    44    23    50 1
    45    24    25 1
    46    24    51 1
    47    24    52 1
    48    25    26 1
    49    25    53 1
    50    25    54 1
    51    26    27 1
    52    26    28 1
    53    29    30 1
    54    29    31 1
    55    32    33 1
    56    32    34 2
    57    33    55 1
@<TRIPOS>SUBSTRUCTURE
     1 354         1 TEMP              0 ****  ****    0 ROOT
