@<TRIPOS>MOLECULE
355
   75    80     1     0     0
SMALL
bcc


@<TRIPOS>ATOM
      1 C1           0.0000     0.0000     0.0000 c3         1 355       0.054200
      2 C2           1.5060     0.0000     0.0000 cc         1 355      -0.165600
      3 C3           2.1750     0.0000     1.1750 cd         1 355      -0.156000
      4 C4           3.5770     0.0000     1.1880 cd         1 355      -0.040000
      5 C5           4.2600    -0.0010     0.0080 cc         1 355      -0.119000
      6 C6           3.5470    -0.0020    -1.2040 cc         1 355      -0.079300
      7 N1           4.2120    -0.0030    -2.3580 nd         1 355      -0.272600
      8 C7           3.5780    -0.0040    -3.5200 cd         1 355       0.155400
      9 C8           4.3620    -0.0050    -4.8050 c3         1 355       0.081200
     10 N2           5.1150     1.2470    -4.9200 n          1 355       0.052000
     11 C9           6.3600     1.3230    -4.4210 c          1 355       0.603500
     12 O1           6.8320     0.3400    -3.8820 o          1 355      -0.686500
     13 N3           7.1060     2.4360    -4.4910 n          1 355      -0.090400
     14 C10          8.4550     2.4360    -3.9210 c3         1 355       0.037000
     15 C11          9.4590     1.9980    -4.9880 c3         1 355      -0.068700
     16 C12         10.8500     1.8760    -4.3620 c3         1 355      -0.027900
     17 C13         11.8540     1.4380    -5.4300 c3         1 355      -0.012400
     18 C14         11.8900     2.4770    -6.5520 c3         1 355      -0.121700
     19 C15         10.5000     2.5990    -7.1790 c3         1 355      -0.012400
     20 C16          9.4950     3.0370    -6.1110 c3         1 355      -0.027900
     21 C17         12.8790     2.0460    -7.6040 c          1 355       0.574100
     22 O2          13.4950     1.0100    -7.4700 o          1 355      -0.648100
     23 N4          13.0790     2.8120    -8.6950 ns         1 355      -0.202900
     24 C18         14.0410     2.3930    -9.7180 c3         1 355       0.112300
     25 C19         14.0760     3.4160   -10.8240 ca         1 355      -0.126300
     26 C20         14.9610     4.4760   -10.7560 ca         1 355      -0.084500
     27 C21         14.9930     5.4150   -11.7710 ca         1 355      -0.102000
     28 C22         14.1410     5.2930   -12.8530 ca         1 355      -0.093000
     29 C23         13.2570     4.2320   -12.9200 ca         1 355      -0.102000
     30 C24         13.2280     3.2910   -11.9080 ca         1 355      -0.084500
     31 C25          6.6350     3.5590    -5.0770 c          1 355       0.645100
     32 O3           7.3170     4.5640    -5.1370 o          1 355      -0.654500
     33 C26          5.2740     3.5340    -5.6430 ca         1 355      -0.221600
     34 C27          4.5360     2.3410    -5.5480 ca         1 355      -0.041400
     35 C28          3.2560     2.2830    -6.0750 ca         1 355      -0.173000
     36 C29          2.7180     3.3940    -6.6930 ca         1 355      -0.027000
     37 C30          3.4460     4.5700    -6.7920 ca         1 355      -0.151000
     38 C31          4.7180     4.6490    -6.2640 ca         1 355       0.010000
     39 C32          2.1960    -0.0040    -3.5530 cc         1 355      -0.355200
     40 C33          1.4900    -0.0040    -2.3450 c          1 355       0.465500
     41 O4           0.2690    -0.0050    -2.3410 o          1 355      -0.692500
     42 N5           2.1790    -0.0070    -1.1850 n          1 355       0.484800
     43 H1          -0.3610    -0.8860    -0.5080 hc         1 355       0.035033
     44 H2          -0.3610     0.0020     1.0210 hc         1 355       0.035033
     45 H3          -0.3610     0.8830    -0.5130 hc         1 355       0.035033
     46 H4           1.6260     0.0010     2.1080 ha         1 355       0.130000
     47 H5           4.1140     0.0000     2.1290 ha         1 355       0.116000
     48 H6           5.3430    -0.0010     0.0040 ha         1 355       0.144000
     49 H7           3.6820    -0.0950    -5.6430 h1         1 355       0.057200
     50 H8           5.0500    -0.8420    -4.8070 h1         1 355       0.057200
     51 H9           8.7030     3.4330    -3.5790 h1         1 355       0.051700
     52 H10          8.4930     1.7480    -3.0850 h1         1 355       0.051700
     53 H11          9.1640     1.0380    -5.3960 hc         1 355       0.043700
     54 H12         10.8240     1.1390    -3.5690 hc         1 355       0.023200
     55 H13         11.1480     2.8370    -3.9600 hc         1 355       0.023200
     56 H14         12.8390     1.3550    -4.9850 hc         1 355       0.023700
     57 H15         11.5530     0.4800    -5.8350 hc         1 355       0.023700
     58 H16         12.1850     3.4370    -6.1440 hc         1 355       0.039700
     59 H17         10.5260     3.3370    -7.9720 hc         1 355       0.023700
     60 H18         10.2020     1.6390    -7.5820 hc         1 355       0.023700
     61 H19          8.5100     3.1200    -6.5560 hc         1 355       0.023200
     62 H20          9.7950     3.9950    -5.7050 hc         1 355       0.023200
     63 H21         12.5990     3.6850    -8.7880 hn         1 355       0.180500
     64 H22         15.0260     2.3070    -9.2740 h1         1 355       0.028700
     65 H23         13.7430     1.4330   -10.1230 h1         1 355       0.028700
     66 H24         15.6280     4.5720    -9.9090 ha         1 355       0.108000
     67 H25         15.6860     6.2460   -11.7180 ha         1 355       0.104500
     68 H26         14.1650     6.0290   -13.6470 ha         1 355       0.103000
     69 H27         12.5910     4.1350   -13.7690 ha         1 355       0.104500
     70 H28         12.5360     2.4600   -11.9610 ha         1 355       0.108000
     71 H29          2.6800     1.3690    -6.0020 ha         1 355       0.127000
     72 H30          1.7200     3.3440    -7.1110 ha         1 355       0.104000
     73 H31          3.0100     5.4330    -7.2790 ha         1 355       0.112000
     74 H32          5.2850     5.5690    -6.3430 ha         1 355       0.125000
     75 H33          1.6690    -0.0050    -4.4990 ha         1 355       0.148000
@<TRIPOS>BOND
     1     1     2 1   
     2     1    43 1   
     3     1    44 1   
     4     1    45 1   
     5     2     3 2   
     6     2    42 1   
     7     3     4 1   
     8     3    46 1   
     9     4     5 2   
    10     4    47 1   
    11     5     6 1   
    12     5    48 1   
    13     6     7 2   
    14     6    42 1   
    15     7     8 1   
    16     8     9 1   
    17     8    39 2   
    18     9    10 1   
    19     9    49 1   
    20     9    50 1   
    21    10    11 1   
    22    10    34 1   
    23    11    12 2   
    24    11    13 1   
    25    13    14 1   
    26    13    31 1   
    27    14    15 1   
    28    14    51 1   
    29    14    52 1   
    30    15    16 1   
    31    15    20 1   
    32    15    53 1   
    33    16    17 1   
    34    16    54 1   
    35    16    55 1   
    36    17    18 1   
    37    17    56 1   
    38    17    57 1   
    39    18    19 1   
    40    18    21 1   
    41    18    58 1   
    42    19    20 1   
    43    19    59 1   
    44    19    60 1   
    45    20    61 1   
    46    20    62 1   
    47    21    22 2   
    48    21    23 1   
    49    23    24 1   
    50    23    63 1   
    51    24    25 1   
    52    24    64 1   
    53    24    65 1   
    54    25    26 ar  
    55    25    30 ar  
    56    26    27 ar  
    57    26    66 1   
    58    27    28 ar  
    59    27    67 1   
    60    28    29 ar  
    61    28    68 1   
    62    29    30 ar  
    63    29    69 1   
    64    30    70 1   
    65    31    32 2   
    66    31    33 1   
    67    33    34 ar  
    68    33    38 ar  
    69    34    35 ar  
    70    35    36 ar  
    71    35    71 1   
    72    36    37 ar  
    73    36    72 1   
    74    37    38 ar  
    75    37    73 1   
    76    38    74 1   
    77    39    40 1   
    78    39    75 1   
    79    40    41 2   
    80    40    42 1   
@<TRIPOS>SUBSTRUCTURE
     1 355         1 TEMP              0 ****  ****    0 ROOT
