@<TRIPOS>MOLECULE
molecule
   75    80     1     0     0
SMALL
bcc


@<TRIPOS>ATOM
      1 C1           0.0000     0.0000     0.0000 c3         1 355      -0.042800
      2 C2           1.5060     0.0000     0.0000 cc         1 355       0.019400
      3 C3           2.1750     0.0000     1.1750 cd         1 355      -0.208000
      4 C4           3.5770     0.0000     1.1880 cd         1 355      -0.055000
      5 C5           4.2600    -0.0010     0.0080 cc         1 355      -0.159000
      6 C6           3.5470    -0.0020    -1.2040 cc         1 355       0.143700
      7 N1           4.2120    -0.0030    -2.3580 nd         1 355      -0.366600
      8 C7           3.5780    -0.0040    -3.5200 cd         1 355       0.194400
      9 C8           4.3620    -0.0050    -4.8050 c3         1 355       0.167200
     10 N2           5.1150     1.2470    -4.9200 n          1 355      -0.357000
     11 C9           6.3600     1.3230    -4.4210 c          1 355       0.817500
     12 O1           6.8320     0.3400    -3.8820 o          1 355      -0.638500
     13 N3           7.1060     2.4360    -4.4910 n          1 355      -0.470400
     14 C10          8.4550     2.4360    -3.9210 c3         1 355       0.112000
     15 C11          9.4590     1.9980    -4.9880 c3         1 355      -0.090700
     16 C12         10.8500     1.8760    -4.3620 c3         1 355      -0.075900
     17 C13         11.8540     1.4380    -5.4300 c3         1 355      -0.065900
     18 C14         11.8900     2.4770    -6.5520 c3         1 355      -0.145700
     19 C15         10.5000     2.5990    -7.1790 c3         1 355      -0.065900
     20 C16          9.4950     3.0370    -6.1110 c3         1 355      -0.075900
     21 C17         12.8790     2.0460    -7.6040 c          1 355       0.659100
     22 O2          13.4950     1.0100    -7.4700 o          1 355      -0.611100
     23 N4          13.0790     2.8120    -8.6950 ns         1 355      -0.586900
     24 C18         14.0410     2.3930    -9.7180 c3         1 355       0.160300
     25 C19         14.0760     3.4160   -10.8240 ca         1 355      -0.117300
     26 C20         14.9610     4.4760   -10.7560 ca         1 355      -0.112500
     27 C21         14.9930     5.4150   -11.7710 ca         1 355      -0.131000
     28 C22         14.1410     5.2930   -12.8530 ca         1 355      -0.121000
     29 C23         13.2570     4.2320   -12.9200 ca         1 355      -0.131000
     30 C24         13.2280     3.2910   -11.9080 ca         1 355      -0.112500
     31 C25          6.6350     3.5590    -5.0770 c          1 355       0.717100
     32 O3           7.3170     4.5640    -5.1370 o          1 355      -0.616500
     33 C26          5.2740     3.5340    -5.6430 ca         1 355      -0.209600
     34 C27          4.5360     2.3410    -5.5480 ca         1 355       0.102600
     35 C28          3.2560     2.2830    -6.0750 ca         1 355      -0.189000
     36 C29          2.7180     3.3940    -6.6930 ca         1 355      -0.061000
     37 C30          3.4460     4.5700    -6.7920 ca         1 355      -0.176000
     38 C31          4.7180     4.6490    -6.2640 ca         1 355      -0.028000
     39 C32          2.1960    -0.0040    -3.5530 cc         1 355      -0.363200
     40 C33          1.4900    -0.0040    -2.3450 c          1 355       0.575500
     41 O4           0.2690    -0.0050    -2.3410 o          1 355      -0.649500
     42 N5           2.1790    -0.0070    -1.1850 n          1 355      -0.036200
     43 H1          -0.3610    -0.8860    -0.5080 hc         1 355       0.068700
     44 H2          -0.3610     0.0020     1.0210 hc         1 355       0.068700
     45 H3          -0.3610     0.8830    -0.5130 hc         1 355       0.068700
     46 H4           1.6260     0.0010     2.1080 ha         1 355       0.157000
     47 H5           4.1140     0.0000     2.1290 ha         1 355       0.149000
     48 H6           5.3430    -0.0010     0.0040 ha         1 355       0.177000
     49 H7           3.6820    -0.0950    -5.6430 h1         1 355       0.088200
     50 H8           5.0500    -0.8420    -4.8070 h1         1 355       0.088200
     51 H9           8.7030     3.4330    -3.5790 h1         1 355       0.078200
     52 H10          8.4930     1.7480    -3.0850 h1         1 355       0.078200
     53 H11          9.1640     1.0380    -5.3960 hc         1 355       0.067700
     54 H12         10.8240     1.1390    -3.5690 hc         1 355       0.048700
     55 H13         11.1480     2.8370    -3.9600 hc         1 355       0.048700
     56 H14         12.8390     1.3550    -4.9850 hc         1 355       0.052450
     57 H15         11.5530     0.4800    -5.8350 hc         1 355       0.052450
     58 H16         12.1850     3.4370    -6.1440 hc         1 355       0.066700
     59 H17         10.5260     3.3370    -7.9720 hc         1 355       0.052450
     60 H18         10.2020     1.6390    -7.5820 hc         1 355       0.052450
     61 H19          8.5100     3.1200    -6.5560 hc         1 355       0.048700
     62 H20          9.7950     3.9950    -5.7050 hc         1 355       0.048700
     63 H21         12.5990     3.6850    -8.7880 hn         1 355       0.318500
     64 H22         15.0260     2.3070    -9.2740 h1         1 355       0.058700
     65 H23         13.7430     1.4330   -10.1230 h1         1 355       0.058700
     66 H24         15.6280     4.5720    -9.9090 ha         1 355       0.135000
     67 H25         15.6860     6.2460   -11.7180 ha         1 355       0.132000
     68 H26         14.1650     6.0290   -13.6470 ha         1 355       0.131000
     69 H27         12.5910     4.1350   -13.7690 ha         1 355       0.132000
     70 H28         12.5360     2.4600   -11.9610 ha         1 355       0.135000
     71 H29          2.6800     1.3690    -6.0020 ha         1 355       0.143000
     72 H30          1.7200     3.3440    -7.1110 ha         1 355       0.138000
     73 H31          3.0100     5.4330    -7.2790 ha         1 355       0.140000
     74 H32          5.2850     5.5690    -6.3430 ha         1 355       0.159000
     75 H33          1.6690    -0.0050    -4.4990 ha         1 355       0.164000
@<TRIPOS>BOND
     1     1     2 1   
     2     2     3 2   
     3     3     4 1   
     4     4     5 2   
     5     5     6 1   
     6     6     7 2   
     7     7     8 1   
     8     8     9 1   
     9     9    10 1   
    10    10    11 1   
    11    11    12 2   
    12    11    13 1   
    13    13    14 1   
    14    14    15 1   
    15    15    16 1   
    16    16    17 1   
    17    17    18 1   
    18    18    19 1   
    19    19    20 1   
    20    15    20 1   
    21    18    21 1   
    22    21    22 2   
    23    21    23 1   
    24    23    24 1   
    25    24    25 1   
    26    25    26 ar  
    27    26    27 ar  
    28    27    28 ar  
    29    28    29 ar  
    30    29    30 ar  
    31    25    30 ar  
    32    13    31 1   
    33    31    32 2   
    34    31    33 1   
    35    33    34 ar  
    36    10    34 1   
    37    34    35 ar  
    38    35    36 ar  
    39    36    37 ar  
    40    37    38 ar  
    41    33    38 ar  
    42     8    39 2   
    43    39    40 1   
    44    40    41 2   
    45    40    42 1   
    46     2    42 1   
    47     6    42 1   
    48     1    43 1   
    49     1    44 1   
    50     1    45 1   
    51     3    46 1   
    52     4    47 1   
    53     5    48 1   
    54     9    49 1   
    55     9    50 1   
    56    14    51 1   
    57    14    52 1   
    58    15    53 1   
    59    16    54 1   
    60    16    55 1   
    61    17    56 1   
    62    17    57 1   
    63    18    58 1   
    64    19    59 1   
    65    19    60 1   
    66    20    61 1   
    67    20    62 1   
    68    23    63 1   
    69    24    64 1   
    70    24    65 1   
    71    26    66 1   
    72    27    67 1   
    73    28    68 1   
    74    29    69 1   
    75    30    70 1   
    76    35    71 1   
    77    36    72 1   
    78    37    73 1   
    79    38    74 1   
    80    39    75 1   
@<TRIPOS>SUBSTRUCTURE
     1 355         1 TEMP              0 ****  ****    0 ROOT
