@<TRIPOS>MOLECULE
356
   64    68     1     0     0
SMALL
bcc


@<TRIPOS>ATOM
      1 C1           0.0000     0.0000     0.0000 cc         1 356      -0.529200
      2 N2           1.3880     0.0000     0.0000 na         1 356       0.398100
      3 C3          -0.3930    -0.0060     1.3340 cd         1 356       0.355200
      4 C4          -0.9840    -0.0010    -1.0050 c          1 356       0.672100
      5 C5           1.7790     0.0000     1.3020 cc         1 356       0.313400
      6 C6           2.2630     0.0000    -1.1750 c3         1 356       0.067400
      7 N7           0.7150    -0.0100     2.0790 nd         1 356      -0.689000
      8 N8          -1.7450    -0.0080     1.6320 n          1 356      -0.012300
      9 N9          -2.2870    -0.0020    -0.6540 n          1 356      -0.070400
     10 O10         -0.6630    -0.0000    -2.1810 o          1 356      -0.649500
     11 N11          3.0830    -0.0000     1.7410 nh         1 356      -0.423300
     12 C12          2.5560     1.3880    -1.5680 c1         1 356      -0.241100
     13 C13         -2.6550    -0.0030     0.6390 c          1 356       0.593500
     14 C14         -2.1870    -0.0090     3.0290 c3         1 356       0.063300
     15 C15         -3.3150    -0.0020    -1.6970 c3         1 356      -0.000300
     16 C16          3.1450    -0.0010     3.2080 c3         1 356       0.145800
     17 C17          3.8280     1.1330     1.1780 c3         1 356       0.074800
     18 C18          2.7740     2.4950    -1.8920 c1         1 356      -0.077100
     19 O19         -3.8380    -0.0060     0.9180 o          1 356      -0.666500
     20 C20         -3.6670    -1.4230    -2.0560 ca         1 356       0.550300
     21 C21          4.6000    -0.1480     3.6590 c3         1 356      -0.090500
     22 C22          5.3040     1.0200     1.5680 c3         1 356      -0.001400
     23 C23          3.2420     3.9990    -2.2610 c3         1 356       0.179000
     24 N24         -4.6330    -2.0160    -1.3960 nb         1 356      -0.570000
     25 N25         -2.9890    -2.0180    -3.0260 nb         1 356      -0.599000
     26 C26          5.4230     1.0130     3.0950 c3         1 356      -0.027400
     27 N27          4.6630    -0.1270     5.1260 nz         1 356       0.081400
     28 C28         -4.9740    -3.2770    -1.6870 ca         1 356       0.388600
     29 C29         -3.2510    -3.2570    -3.3930 ca         1 356       0.428600
     30 C30         -4.2690    -3.9520    -2.7170 ca         1 356      -0.266600
     31 C31         -6.0020    -3.9460    -1.0060 ca         1 356      -0.141300
     32 C32         -2.4660    -3.9180    -4.4960 c3         1 356      -0.046400
     33 C33         -4.6130    -5.2730    -3.0410 ca         1 356      -0.075000
     34 C34         -6.3070    -5.2300    -1.3440 ca         1 356      -0.078000
     35 C35         -5.6110    -5.8940    -2.3510 ca         1 356      -0.092000
     36 H61          1.7280    -0.4110    -2.0230 h1         1 356       0.067200
     37 H62          3.1390    -0.6040    -0.9740 h1         1 356       0.067200
     38 H141        -2.1960     1.0060     3.4050 h1         1 356       0.026367
     39 H142        -1.5070    -0.6080     3.6220 h1         1 356       0.026367
     40 H143        -3.1840    -0.4270     3.0920 h1         1 356       0.026367
     41 H151        -2.9810     0.6000    -2.5330 h1         1 356       0.067700
     42 H152        -4.2340     0.4110    -1.2980 h1         1 356       0.067700
     43 H161         2.6390    -0.8840     3.5790 h1         1 356       0.046700
     44 H162         2.6390     0.8820     3.5800 h1         1 356       0.046700
     45 H171         3.3240     2.0530     1.4490 h1         1 356       0.055200
     46 H172         3.8460     1.0400     0.0990 h1         1 356       0.055200
     47 H21          4.9980    -1.0840     3.2880 hx         1 356       0.103700
     48 H221         5.8210     1.9160     1.2490 hc         1 356       0.045200
     49 H222         5.7340     0.1610     1.0670 hc         1 356       0.045200
     50 H231         4.3240     4.0460    -2.2760 hc         1 356       0.008700
     51 H232         2.8550     4.2680    -3.2360 hc         1 356       0.008700
     52 H233         2.8600     4.6880    -1.5170 hc         1 356       0.008700
     53 H261         5.1030     1.9330     3.5690 hc         1 356       0.031700
     54 H262         6.4690     0.8420     3.3180 hc         1 356       0.031700
     55 H271         4.1020    -0.8690     5.4950 hn         1 356       0.225133
     56 H272         5.6120    -0.2480     5.4210 hn         1 356       0.225133
     57 H31         -6.5620    -3.4350    -0.2320 ha         1 356       0.125000
     58 H321        -3.1430    -4.2320    -5.2820 hc         1 356       0.021367
     59 H322        -1.7470    -3.2150    -4.8990 hc         1 356       0.021367
     60 H323        -1.9450    -4.7820    -4.1010 hc         1 356       0.021367
     61 H33         -4.0790    -5.7940    -3.8270 ha         1 356       0.115000
     62 H34         -7.0990    -5.7530    -0.8220 ha         1 356       0.108000
     63 H35         -5.8840    -6.9140    -2.5950 ha         1 356       0.108000
     64 H273         4.2300     0.7080     5.4670 hn         1 356       0.225133
@<TRIPOS>BOND
     1     1     2 1   
     2     1     3 2   
     3     1     4 1   
     4     2     5 1   
     5     2     6 1   
     6     3     7 1   
     7     3     8 1   
     8     4     9 1   
     9     4    10 2   
    10     5     7 2   
    11     5    11 1   
    12     6    12 1   
    13     6    36 1   
    14     6    37 1   
    15     8    13 1   
    16     8    14 1   
    17     9    13 1   
    18     9    15 1   
    19    11    16 1   
    20    11    17 1   
    21    12    18 3   
    22    13    19 2   
    23    14    38 1   
    24    14    39 1   
    25    14    40 1   
    26    15    20 1   
    27    15    41 1   
    28    15    42 1   
    29    16    21 1   
    30    16    43 1   
    31    16    44 1   
    32    17    22 1   
    33    17    45 1   
    34    17    46 1   
    35    18    23 1   
    36    20    24 ar  
    37    20    25 ar  
    38    21    26 1   
    39    21    27 1   
    40    21    47 1   
    41    22    26 1   
    42    22    48 1   
    43    22    49 1   
    44    23    50 1   
    45    23    51 1   
    46    23    52 1   
    47    24    28 ar  
    48    25    29 ar  
    49    26    53 1   
    50    26    54 1   
    51    27    55 1   
    52    27    56 1   
    53    27    64 1   
    54    28    30 ar  
    55    28    31 ar  
    56    29    30 ar  
    57    29    32 1   
    58    30    33 ar  
    59    31    34 ar  
    60    31    57 1   
    61    32    58 1   
    62    32    59 1   
    63    32    60 1   
    64    33    35 ar  
    65    33    61 1   
    66    34    35 ar  
    67    34    62 1   
    68    35    63 1   
@<TRIPOS>SUBSTRUCTURE
     1 356         1 TEMP              0 ****  ****    0 ROOT
