@<TRIPOS>MOLECULE
molecule
   64    68     1     0     0
SMALL
bcc


@<TRIPOS>ATOM
      1 C1           0.0000     0.0000     0.0000 cc         1 356      -0.334200
      2 N2           1.3880     0.0000     0.0000 na         1 356      -0.126900
      3 C3          -0.3930    -0.0060     1.3340 cc         1 356       0.521200
      4 C4          -0.9840    -0.0010    -1.0050 c          1 356       0.743100
      5 C5           1.7790     0.0000     1.3020 cd         1 356       0.620400
      6 C6           2.2630     0.0000    -1.1750 c3         1 356       0.131400
      7 N7           0.7150    -0.0100     2.0790 nc         1 356      -0.777000
      8 N8          -1.7450    -0.0080     1.6320 n          1 356      -0.427300
      9 N9          -2.2870    -0.0020    -0.6540 n          1 356      -0.460400
     10 O10         -0.6630    -0.0000    -2.1810 o          1 356      -0.602500
     11 N11          3.0830    -0.0000     1.7410 nh         1 356      -0.672300
     12 C12          2.5560     1.3880    -1.5680 c1         1 356      -0.219100
     13 C13         -2.6550    -0.0030     0.6390 c          1 356       0.815500
     14 C14         -2.1870    -0.0090     3.0290 c3         1 356       0.106300
     15 C15         -3.3150    -0.0020    -1.6970 c3         1 356       0.089700
     16 C16          3.1450    -0.0010     3.2080 c3         1 356       0.162800
     17 C17          3.8280     1.1330     1.1780 c3         1 356       0.127800
     18 C18          2.7740     2.4950    -1.8920 c1         1 356      -0.081100
     19 O19         -3.8380    -0.0060     0.9180 o          1 356      -0.615500
     20 C20         -3.6670    -1.4230    -2.0560 ca         1 356       0.649300
     21 C21          4.6000    -0.1480     3.6590 c3         1 356       0.091500
     22 C22          5.3040     1.0200     1.5680 c3         1 356      -0.066400
     23 C23          3.2420     3.9990    -2.2610 c3         1 356       0.018000
     24 N24         -4.6330    -2.0160    -1.3960 nb         1 356      -0.698000
     25 N25         -2.9890    -2.0180    -3.0260 nb         1 356      -0.727000
     26 C26          5.4230     1.0130     3.0950 c3         1 356      -0.102400
     27 N27          4.6630    -0.1270     5.1260 nz         1 356      -0.809600
     28 C28         -4.9740    -3.2770    -1.6870 ca         1 356       0.442600
     29 C29         -3.2510    -3.2570    -3.3930 ca         1 356       0.489600
     30 C30         -4.2690    -3.9520    -2.7170 ca         1 356      -0.280600
     31 C31         -6.0020    -3.9460    -1.0060 ca         1 356      -0.167300
     32 C32         -2.4660    -3.9180    -4.4960 c3         1 356      -0.147400
     33 C33         -4.6130    -5.2730    -3.0410 ca         1 356      -0.099000
     34 C34         -6.3070    -5.2300    -1.3440 ca         1 356      -0.104000
     35 C35         -5.6110    -5.8940    -2.3510 ca         1 356      -0.125000
     36 H61          1.7280    -0.4110    -2.0230 h1         1 356       0.103200
     37 H62          3.1390    -0.6040    -0.9740 h1         1 356       0.103200
     38 H141        -2.1960     1.0060     3.4050 h1         1 356       0.059367
     39 H142        -1.5070    -0.6080     3.6220 h1         1 356       0.059367
     40 H143        -3.1840    -0.4270     3.0920 h1         1 356       0.059367
     41 H151        -2.9810     0.6000    -2.5330 h1         1 356       0.104700
     42 H152        -4.2340     0.4110    -1.2980 h1         1 356       0.104700
     43 H161         2.6390    -0.8840     3.5790 h1         1 356       0.076700
     44 H162         2.6390     0.8820     3.5800 h1         1 356       0.076700
     45 H171         3.3240     2.0530     1.4490 h1         1 356       0.081200
     46 H172         3.8460     1.0400     0.0990 h1         1 356       0.081200
     47 H21          4.9980    -1.0840     3.2880 hx         1 356       0.130700
     48 H221         5.8210     1.9160     1.2490 hc         1 356       0.082200
     49 H222         5.7340     0.1610     1.0670 hc         1 356       0.082200
     50 H231         4.3240     4.0460    -2.2760 hc         1 356       0.059367
     51 H232         2.8550     4.2680    -3.2360 hc         1 356       0.059367
     52 H233         2.8600     4.6880    -1.5170 hc         1 356       0.059367
     53 H261         5.1030     1.9330     3.5690 hc         1 356       0.064200
     54 H262         6.4690     0.8420     3.3180 hc         1 356       0.064200
     55 H271         4.1020    -0.8690     5.4950 hn         1 356       0.456800
     56 H272         5.6120    -0.2480     5.4210 hn         1 356       0.456800
     57 H31         -6.5620    -3.4350    -0.2320 ha         1 356       0.157000
     58 H321        -3.1430    -4.2320    -5.2820 hc         1 356       0.060700
     59 H322        -1.7470    -3.2150    -4.8990 hc         1 356       0.060700
     60 H323        -1.9450    -4.7820    -4.1010 hc         1 356       0.060700
     61 H33         -4.0790    -5.7940    -3.8270 ha         1 356       0.139000
     62 H34         -7.0990    -5.7530    -0.8220 ha         1 356       0.140000
     63 H35         -5.8840    -6.9140    -2.5950 ha         1 356       0.137000
     64 H273         4.2300     0.7080     5.4670 hn         1 356       0.456800
@<TRIPOS>BOND
     1    14     8 1
     2    22    17 1
     3    22    26 1
     4    19    13 2
     5     8    13 1
     6     8     3 1
     7    17    11 1
     8    26    21 1
     9     7     3 1
    10     7     5 2
    11    13     9 1
    12     3     1 2
    13    11     5 1
    14    11    16 1
    15     5     2 1
    16    21    16 1
    17    21    27 1
    18    32    29 1
    19     9    15 1
    20     9     4 1
    21    33    35 ar
    22    33    30 ar
    23     1     2 1
    24     1     4 1
    25    29    30 ar
    26    29    25 ar
    27    35    34 ar
    28    30    28 ar
    29    25    20 ar
    30    34    31 ar
    31    28    31 ar
    32    28    24 ar
    33    20    24 ar
    34    20    15 1
    35     2     6 1
    36     4    10 2
    37     6    12 1
    38    12    18 3
    39    18    23 1
    40     6    36 1
    41     6    37 1
    42    14    38 1
    43    14    39 1
    44    14    40 1
    45    15    41 1
    46    15    42 1
    47    16    43 1
    48    16    44 1
    49    17    45 1
    50    17    46 1
    51    21    47 1
    52    22    48 1
    53    22    49 1
    54    23    50 1
    55    23    51 1
    56    23    52 1
    57    26    53 1
    58    26    54 1
    59    27    55 1
    60    27    56 1
    61    31    57 1
    62    32    58 1
    63    32    59 1
    64    32    60 1
    65    33    61 1
    66    34    62 1
    67    35    63 1
    68    64    27 1
@<TRIPOS>SUBSTRUCTURE
     1 356         1 TEMP              0 ****  ****    0 ROOT
