@<TRIPOS>MOLECULE
molecule
   55    59     1     0     0
SMALL
bcc


@<TRIPOS>ATOM
      1 Cl1          0.0000     0.0000     0.0000 cl         1 358      -0.080400
      2 C1           1.7370     0.0000     0.0000 ca         1 358       0.047900
      3 C2           2.4290     0.0000     1.1970 ca         1 358      -0.121500
      4 C3           3.8120     0.0000     1.1980 ca         1 358      -0.105000
      5 C4           4.5060    -0.0000     0.0030 ca         1 358      -0.121500
      6 C5           3.8210    -0.0050    -1.1970 ca         1 358       0.047900
      7 Cl2          4.6950    -0.0040    -2.6970 cl         1 358      -0.080400
      8 C6           2.4320     0.0000    -1.2020 ca         1 358       0.055600
      9 N1           1.7340     0.0000    -2.4170 n          1 358      -0.285200
     10 C7           1.4030    -1.1680    -2.9930 c          1 358       0.708500
     11 O1           1.6200    -2.2090    -2.4100 o          1 358      -0.609500
     12 C8           0.7650    -1.1950    -4.3570 c3         1 358      -0.146400
     13 C9          -0.2130    -0.0280    -4.4920 c3         1 358      -0.039100
     14 C10          0.4450     1.2460    -4.0310 ca         1 358      -0.102300
     15 C11          1.3880     1.2170    -3.0170 ca         1 358       0.081600
     16 C12          1.9760     2.3970    -2.5830 ca         1 358      -0.150000
     17 C13          1.6440     3.5990    -3.1770 ca         1 358      -0.050300
     18 C14          0.7200     3.6350    -4.2030 ca         1 358      -0.129000
     19 C15          0.1170     2.4560    -4.6360 cp         1 358      -0.014000
     20 C16         -0.8790     2.4910    -5.7360 cp         1 358      -0.093000
     21 C17         -0.5150     2.9700    -6.9930 ca         1 358      -0.065000
     22 C18         -1.4430     3.0010    -8.0130 ca         1 358      -0.184000
     23 C19         -2.7370     2.5580    -7.7900 ca         1 358       0.161900
     24 F1          -3.6430     2.5900    -8.7920 f          1 358      -0.132900
     25 C20         -3.1060     2.0860    -6.5420 ca         1 358      -0.213000
     26 C21         -2.1820     2.0450    -5.5150 ca         1 358       0.169900
     27 F2          -2.5410     1.5810    -4.2990 f          1 358      -0.125900
     28 C22          2.2910     4.8760    -2.7060 c3         1 358      -0.026400
     29 C23          3.0520     5.5250    -3.8640 c3         1 358      -0.069900
     30 C24          3.6090     6.8740    -3.4080 c3         1 358       0.147300
     31 N2           2.5070     7.7620    -3.0260 n7         1 358      -0.801200
     32 C25          1.8660     7.1790    -1.8430 c3         1 358       0.147300
     33 C26          1.2130     5.8460    -2.2130 c3         1 358      -0.069900
     34 H2           1.8870     0.0000     2.1350 ha         1 358       0.151500
     35 H3           4.3520     0.0020     2.1370 ha         1 358       0.145000
     36 H4           5.5890     0.0000     0.0070 ha         1 358       0.151500
     37 H81          1.5400    -1.0890    -5.1060 hc         1 358       0.080700
     38 H82          0.2160    -2.1230    -4.4660 hc         1 358       0.080700
     39 H91         -1.0750    -0.2220    -3.8650 hc         1 358       0.068700
     40 H92         -0.4850     0.0780    -5.5360 hc         1 358       0.068700
     41 H12          2.7010     2.3750    -1.7780 ha         1 358       0.143000
     42 H14          0.4620     4.5790    -4.6670 ha         1 358       0.144000
     43 H17          0.4960     3.3170    -7.1690 ha         1 358       0.151000
     44 H18         -1.1600     3.3730    -8.9900 ha         1 358       0.152000
     45 H20         -4.1190     1.7400    -6.3720 ha         1 358       0.162000
     46 H22          2.9800     4.6610    -1.8970 hc         1 358       0.054700
     47 H231         2.3770     5.6770    -4.6980 hc         1 358       0.053700
     48 H232         3.8690     4.8800    -4.1650 hc         1 358       0.053700
     49 H241         4.2600     6.7240    -2.5550 h1         1 358       0.031950
     50 H242         4.1680     7.3240    -4.2190 h1         1 358       0.031950
     51 HN2          2.8710     8.6660    -2.7970 hn         1 358       0.351800
     52 H251         1.1090     7.8590    -1.4730 h1         1 358       0.031950
     53 H252         2.6130     7.0110    -1.0760 h1         1 358       0.031950
     54 H261         0.4860     6.0070    -3.0000 hc         1 358       0.053700
     55 H262         0.7240     5.4290    -1.3410 hc         1 358       0.053700
@<TRIPOS>BOND
     1     1     2 1   
     2     2     3 ar  
     3     2     8 ar  
     4     3     4 ar  
     5     3    34 1   
     6     4     5 ar  
     7     4    35 1   
     8     5     6 ar  
     9     5    36 1   
    10     6     7 1   
    11     6     8 ar  
    12     8     9 1   
    13     9    10 1   
    14     9    15 1   
    15    10    11 2   
    16    10    12 1   
    17    12    13 1   
    18    12    37 1   
    19    12    38 1   
    20    13    14 1   
    21    13    39 1   
    22    13    40 1   
    23    14    15 ar  
    24    14    19 ar  
    25    15    16 ar  
    26    16    17 ar  
    27    16    41 1   
    28    17    18 ar  
    29    17    28 1   
    30    18    19 ar  
    31    18    42 1   
    32    19    20 1   
    33    20    21 ar  
    34    20    26 ar  
    35    21    22 ar  
    36    21    43 1   
    37    22    23 ar  
    38    22    44 1   
    39    23    24 1   
    40    23    25 ar  
    41    25    26 ar  
    42    25    45 1   
    43    26    27 1   
    44    28    29 1   
    45    28    33 1   
    46    28    46 1   
    47    29    30 1   
    48    29    47 1   
    49    29    48 1   
    50    30    31 1   
    51    30    49 1   
    52    30    50 1   
    53    31    32 1   
    54    31    51 1   
    55    32    33 1   
    56    32    52 1   
    57    32    53 1   
    58    33    54 1   
    59    33    55 1   
@<TRIPOS>SUBSTRUCTURE
     1 358         1 TEMP              0 ****  ****    0 ROOT
