@<TRIPOS>MOLECULE
35A
   66    68     1     0     0
SMALL
bcc


@<TRIPOS>ATOM
      1 C           0.1050    1.2860   -0.9440 ca        1 35A     -0.091300
      2 C1          1.1300    2.1440   -0.5560 ca        1 35A     -0.218300
      3 C2          4.2860   -3.5820   -2.8570 ca        1 35A     -0.119000
      4 C3          3.1900   -3.3800   -3.6930 ca        1 35A     -0.139000
      5 O          -0.7480    0.2440   -2.9120 os        1 35A     -0.457900
      6 C4         -0.6690    1.5010   -2.2030 c3        1 35A      0.181700
      7 C5          2.7480   -2.0780   -3.9650 ca        1 35A     -0.158300
      8 C6          1.6130   -1.8570   -4.9000 c3        1 35A     -0.048100
      9 C7          0.2730   -1.5320   -4.1940 c3        1 35A      0.098200
     10 C8          4.9390   -2.4950   -2.2760 ca        1 35A     -0.105000
     11 C9          4.5050   -1.1900   -2.5380 ca        1 35A     -0.063300
     12 C10         3.4170   -0.9890   -3.3960 ca        1 35A     -0.116000
     13 C11         4.3250    2.1570    1.1470 c3        1 35A     -0.073400
     14 C12         5.0000    1.7940   -0.1700 c3        1 35A     -0.067700
     15 C13         4.3320    0.5940   -0.8240 c3        1 35A     -0.071400
     16 C14         5.1870   -0.0200   -1.9180 c3        1 35A     -0.048100
     17 C15         1.8580    1.8490    0.6260 ca        1 35A      0.451600
     18 C16         2.9540    2.7930    1.0420 c3        1 35A     -0.135700
     19 N           1.6110    0.7610    1.3850 nb        1 35A     -0.664000
     20 C17        -0.1910    0.1720   -0.1520 ca        1 35A     -0.235300
     21 C18         0.6040   -0.0770    0.9950 ca        1 35A      0.622200
     22 N19         0.3510   -1.2570    1.7520 nh        1 35A     -0.793200
     23 S           0.5630   -2.7370    1.1050 s6        1 35A      1.486900
     24 C20         2.1720   -3.1140    1.4440 c3        1 35A     -0.383300
     25 O21        -0.2810   -3.6810    1.7070 o         1 35A     -0.688800
     26 O22         0.4290   -2.6660   -0.3210 o         1 35A     -0.688800
     27 C23         0.1070   -1.0830    3.1600 c3        1 35A      0.196100
     28 C24         5.0680    2.9780   -1.1120 c3        1 35A     -0.094100
     29 C25         0.2430   -0.0460   -3.8050 c         1 35A      0.621100
     30 O26         0.9530    0.8440   -4.2570 o         1 35A     -0.463000
     31 C27        -0.8810   -1.7600   -5.1780 c3        1 35A     -0.130100
     32 N28         0.1010   -2.3910   -2.9660 n4        1 35A     -0.825600
     33 H1          1.3880    3.0320   -1.1530 ha        1 35A      0.164000
     34 H3          2.6980   -4.2430   -4.1660 ha        1 35A      0.134000
     35 H41        -1.7480    1.7360   -1.9880 h1        1 35A      0.102200
     36 H42        -0.2140    2.2930   -2.8540 h1        1 35A      0.102200
     37 H61         1.4600   -2.7650   -5.5440 hc        1 35A      0.099200
     38 H62         1.8440   -0.9910   -5.5820 hc        1 35A      0.099200
     39 H8          5.8080   -2.6630   -1.6210 ha        1 35A      0.152000
     40 H10         3.0960    0.0390   -3.6360 ha        1 35A      0.156000
     41 H111        4.9900    2.8930    1.6770 hc        1 35A      0.058200
     42 H112        4.2690    1.2410    1.7930 hc        1 35A      0.058200
     43 H12         6.0600    1.4970    0.0880 hc        1 35A      0.057700
     44 H131        4.1270   -0.1830   -0.0400 hc        1 35A      0.035700
     45 H132        3.3440    0.9060   -1.2550 hc        1 35A      0.035700
     46 H141        6.1770   -0.3320   -1.4900 hc        1 35A      0.065200
     47 H142        5.3950    0.7500   -2.7100 hc        1 35A      0.065200
     48 H161        2.9890    3.6500    0.3160 hc        1 35A      0.070200
     49 H162        2.6830    3.2200    2.0480 hc        1 35A      0.070200
     50 H17        -1.0130   -0.5030   -0.4340 ha        1 35A      0.152000
     51 H201        2.4090   -3.1230    2.5390 h1        1 35A      0.131367
     52 H202        2.4300   -4.1410    1.0750 h1        1 35A      0.131367
     53 H203        2.9140   -2.4200    0.9770 h1        1 35A      0.131367
     54 H231        1.0660   -0.9000    3.7170 h1        1 35A      0.067033
     55 H232       -0.5740   -0.2070    3.3290 h1        1 35A      0.067033
     56 H233       -0.3930   -2.0080    3.5600 h1        1 35A      0.067033
     57 H241        5.7860    2.7730   -1.9430 hc        1 35A      0.039033
     58 H242        5.4160    3.8880   -0.5650 hc        1 35A      0.039033
     59 H243        4.0680    3.1930   -1.5600 hc        1 35A      0.039033
     60 H271       -0.9230   -2.8260   -5.5080 hc        1 35A      0.085033
     61 H272       -1.8590   -1.4720   -4.7200 hc        1 35A      0.085033
     62 H273       -0.7080   -1.1200   -6.0790 hc        1 35A      0.085033
     63 H281       -0.5850   -1.9770   -2.3170 hn        1 35A      0.475133
     64 H282        0.9930   -2.4720   -2.4490 hn        1 35A      0.475133
     65 H283       -0.2100   -3.3250   -3.2360 hn        1 35A      0.475133
     66 H2          4.6450   -4.6050   -2.6620 ha        1 35A      0.151000
@<TRIPOS>BOND
     1    1    2 ar
     2    1    6 1
     3    1   20 ar
     4    2   17 ar
     5    2   33 1
     6    3    4 ar
     7    3   10 ar
     8    3   66 1
     9    4    7 ar
    10    4   34 1
    11    5    6 1
    12    5   29 1
    13    6   35 1
    14    6   36 1
    15    7    8 1
    16    7   12 ar
    17    8    9 1
    18    8   37 1
    19    8   38 1
    20    9   29 1
    21    9   31 1
    22    9   32 1
    23   10   11 ar
    24   10   39 1
    25   11   12 ar
    26   11   16 1
    27   12   40 1
    28   13   14 1
    29   13   18 1
    30   13   41 1
    31   13   42 1
    32   14   15 1
    33   14   28 1
    34   14   43 1
    35   15   16 1
    36   15   44 1
    37   15   45 1
    38   16   46 1
    39   16   47 1
    40   17   18 1
    41   17   19 ar
    42   18   48 1
    43   18   49 1
    44   19   21 ar
    45   20   21 ar
    46   20   50 1
    47   21   22 1
    48   22   23 1
    49   22   27 1
    50   23   24 1
    51   23   25 2
    52   23   26 2
    53   24   51 1
    54   24   52 1
    55   24   53 1
    56   27   54 1
    57   27   55 1
    58   27   56 1
    59   28   57 1
    60   28   58 1
    61   28   59 1
    62   29   30 2
    63   31   60 1
    64   31   61 1
    65   31   62 1
    66   32   63 1
    67   32   64 1
    68   32   65 1
@<TRIPOS>SUBSTRUCTURE
     1 35A         1 TEMP              0 ****  ****    0 ROOT
