@<TRIPOS>MOLECULE
35B
   52    54     1     0     0
SMALL
bcc


@<TRIPOS>ATOM
      1 C1           0.0000     0.0000     0.0000 c3         1 35B       0.105300
      2 C2           2.1390     0.0000     1.1680 c          1 35B       0.585100
      3 C3           4.1750     0.2110     2.3810 ca         1 35B      -0.076400
      4 C4           5.5400     0.4700     2.3800 ca         1 35B      -0.202000
      5 C5           6.2280     0.5800     3.5740 ca         1 35B      -0.105000
      6 C6           5.5650     0.4320     4.7740 ca         1 35B      -0.111000
      7 N1           1.4650     0.0000     0.0000 ns         1 35B      -0.296900
      8 C7           4.1930     0.1720     4.7860 ca         1 35B       0.109000
      9 O1           1.5340    -0.0890     2.2190 o          1 35B      -0.654100
     10 C8           3.4970     0.0670     3.5810 ca         1 35B      -0.164000
     11 C9           3.4780     0.0130     6.0700 cc         1 35B      -0.053100
     12 C10          3.8810    -0.7900     7.0960 cd         1 35B       0.053100
     13 C11          3.0570    -0.7770     8.1950 cd         1 35B       0.088100
     14 C12          1.9620     0.0450     8.0750 cc         1 35B       0.056300
     15 C13          0.9710     0.2300     9.0650 c          1 35B       0.972200
     16 C14          4.0900    -0.9050    10.3310 c3         1 35B       0.101400
     17 C15          4.2570    -1.8670    11.4780 c          1 35B       0.991600
     18 C16          4.2200     0.0940    -0.0970 c3         1 35B      -0.011300
     19 C17          3.8100     1.3090    -0.9320 c3         1 35B      -0.068900
     20 C18          4.5800     1.3010    -2.2540 c3         1 35B      -0.018400
     21 C19          4.2560     0.0200    -3.0260 c3         1 35B      -0.028400
     22 C20          4.6660    -1.1950    -2.1910 c3         1 35B      -0.018400
     23 C21          3.8970    -1.1880    -0.8690 c3         1 35B      -0.068900
     24 N2           3.4830     0.1000     1.1690 n          1 35B       0.014000
     25 S1           1.9880     0.8370     6.5050 ss         1 35B      -0.241800
     26 O2          -0.0650     1.0660     8.8350 o          1 35B      -0.857800
     27 O3           1.0490    -0.3650    10.1250 o          1 35B      -0.857800
     28 O4           3.3030    -1.5150     9.3070 os         1 35B      -0.249900
     29 O5           4.9650    -1.5050    12.5600 o          1 35B      -0.909800
     30 O6           3.7530    -2.9630    11.4250 o          1 35B      -0.909800
     31 Br1          5.4520    -1.8400     7.0120 br         1 35B      -0.157100
     32 H1          -0.3610     0.8790     0.5200 h1         1 35B       0.004367
     33 H1A         -0.3610    -0.8900     0.5010 h1         1 35B       0.004367
     34 H4           6.0660     0.5910     1.4410 ha         1 35B       0.093000
     35 H5           7.2920     0.7820     3.5670 ha         1 35B       0.087000
     36 H6           6.2290     0.7160     5.5820 ha         1 35B       0.117000
     37 H8           2.4520    -0.2170     3.5830 ha         1 35B       0.213000
     38 H14          3.5930    -0.0080    10.6810 h1         1 35B      -0.008800
     39 H14A         5.0630    -0.6460     9.9320 h1         1 35B      -0.008800
     40 H16          5.2840     0.1360     0.0990 h1         1 35B       0.068700
     41 H17          2.7470     1.2650    -1.1340 hc         1 35B       0.033950
     42 H17A         4.0420     2.2150    -0.3850 hc         1 35B       0.033950
     43 H18          5.6440     1.3400    -2.0520 hc         1 35B       0.012950
     44 H18A         4.2880     2.1610    -2.8450 hc         1 35B       0.012950
     45 H19          4.8030     0.0150    -3.9610 hc         1 35B       0.008700
     46 H19A         3.1920    -0.0220    -3.2240 hc         1 35B       0.008700
     47 H20          5.7290    -1.1510    -1.9890 hc         1 35B       0.012950
     48 H20A         4.4340    -2.1010    -2.7370 hc         1 35B       0.012950
     49 H21          4.1900    -2.0470    -0.2780 hc         1 35B       0.033950
     50 H21A         2.8330    -1.2280    -1.0710 hc         1 35B       0.033950
     51 H1B         -0.3610     0.0110    -1.0210 h1         1 35B       0.004367
     52 HN           1.9650    -0.0240    -0.8670 hn         1 35B       0.206500
@<TRIPOS>BOND
     1     1     7 1   
     2     1    32 1   
     3     1    33 1   
     4     1    51 1   
     5     2     7 1   
     6     2     9 2   
     7     2    24 1   
     8     3     4 ar  
     9     3    10 ar  
    10     3    24 1   
    11     4     5 ar  
    12     4    34 1   
    13     5     6 ar  
    14     5    35 1   
    15     6     8 ar  
    16     6    36 1   
    17     7    52 1   
    18     8    10 ar  
    19     8    11 1   
    20    10    37 1   
    21    11    12 2   
    22    11    25 1   
    23    12    13 1   
    24    12    31 1   
    25    13    14 2   
    26    13    28 1   
    27    14    15 1   
    28    14    25 1   
    29    15    26 1   
    30    15    27 1   
    31    16    17 1   
    32    16    28 1   
    33    16    38 1   
    34    16    39 1   
    35    17    29 1   
    36    17    30 1   
    37    18    19 1   
    38    18    23 1   
    39    18    24 1   
    40    18    40 1   
    41    19    20 1   
    42    19    41 1   
    43    19    42 1   
    44    20    21 1   
    45    20    43 1   
    46    20    44 1   
    47    21    22 1   
    48    21    45 1   
    49    21    46 1   
    50    22    23 1   
    51    22    47 1   
    52    22    48 1   
    53    23    49 1   
    54    23    50 1   
@<TRIPOS>SUBSTRUCTURE
     1 35B         1 TEMP              0 ****  ****    0 ROOT
