@<TRIPOS>MOLECULE
molecule
   14    14     1     0     0
SMALL
bcc


@<TRIPOS>ATOM
      1 C1           0.0000     0.0000     0.0000 ca         1 35C       0.108100
      2 C2           1.3910     0.0000     0.0000 ca         1 35C       0.097100
      3 C3           2.0820     0.0000     1.2030 ca         1 35C       0.012400
      4 C4           1.3880    -0.0010     2.3990 ca         1 35C      -0.116000
      5 C5           0.0030    -0.0010     2.3980 ca         1 35C       0.039400
      6 C6          -0.6900     0.0000     1.2010 ca         1 35C      -0.150000
      7 O7          -0.6810     0.0060    -1.1770 oh         1 35C      -0.503100
      8 O8           2.0730    -0.0000    -1.1770 oh         1 35C      -0.500100
      9 Cl9          3.8170    -0.0010     1.2070 cl         1 35C      -0.077400
     10 Cl10        -0.8630    -0.0030     3.9020 cl         1 35C      -0.089400
     11 H4           1.9280    -0.0010     3.3380 ha         1 35C       0.162000
     12 H6          -1.7730     0.0000     1.2040 ha         1 35C       0.159000
     13 HO7         -1.0540    -0.8470    -1.3290 ho         1 35C       0.429000
     14 HO8          2.3560     0.8770    -1.3770 ho         1 35C       0.430000
@<TRIPOS>BOND
     1     7     1 1
     2     1     2 ar
     3     1     6 ar
     4     8     2 1
     5     2     3 ar
     6     3     9 1
     7     3     4 ar
     8     5     4 ar
     9     4    11 1
    10     6     5 ar
    11     5    10 1
    12     6    12 1
    13     7    13 1
    14     8    14 1
@<TRIPOS>SUBSTRUCTURE
     1 35C         1 TEMP              0 ****  ****    0 ROOT
