@<TRIPOS>MOLECULE
35C
   14    14     1     0     0
SMALL
bcc


@<TRIPOS>ATOM
      1 C1         -0.1090   -0.0920    0.0290 ca        1 35C      0.128100
      2 C2          1.3030   -0.0030    0.0110 ca        1 35C      0.050100
      3 C3          2.0020    0.1040    1.2210 ca        1 35C     -0.020600
      4 C4          1.3100    0.1210    2.4350 ca        1 35C     -0.121000
      5 C5         -0.0830    0.0320    2.4340 ca        1 35C      0.025400
      6 C6         -0.8050   -0.0750    1.2420 ca        1 35C     -0.129000
      7 O7         -0.8550   -0.1990   -1.1190 oh        1 35C     -0.487100
      8 O8          1.8820   -0.0290   -1.2380 oh        1 35C     -0.508100
      9 CL9         3.7000    0.2140    1.2320 cl        1 35C     -0.080400
     10 CL10       -0.9200    0.0530    3.9120 cl        1 35C     -0.077400
     11 H4          1.8640    0.2050    3.3840 ha        1 35C      0.165000
     12 H6         -1.9030   -0.1460    1.2360 ha        1 35C      0.172000
     13 HO7        -0.2490   -0.1980   -1.8770 ho        1 35C      0.443000
     14 HO8         2.8430    0.0390   -1.1300 ho        1 35C      0.442000
@<TRIPOS>BOND
     1    1    2 ar  
     2    1    6 ar  
     3    1    7 1   
     4    2    3 ar  
     5    2    8 1   
     6    3    4 ar  
     7    3    9 1   
     8    4    5 ar  
     9    4   11 1   
    10    5    6 ar  
    11    5   10 1   
    12    6   12 1   
    13    7   13 1   
    14    8   14 1   
@<TRIPOS>SUBSTRUCTURE
     1 35C         1 TEMP              0 ****  ****    0 ROOT
