@<TRIPOS>MOLECULE
35D
   61    66     1     0     0
SMALL
bcc


@<TRIPOS>ATOM
      1 C01          0.0000     0.0000     0.0000 c3         1 35D      -0.073100
      2 C02          1.5070     0.0000     0.0000 c          1 35D       0.589100
      3 O03          2.1150     0.0000     1.0500 o          1 35D      -0.652100
      4 N04          2.1810    -0.0020    -1.1670 n          1 35D      -0.158800
      5 C05          3.6500    -0.0020    -1.1840 c3         1 35D       0.048500
      6 C06          4.1330    -1.1710    -2.0480 c3         1 35D      -0.038900
      7 C07          3.4890    -1.0760    -3.4340 c3         1 35D      -0.092000
      8 C08          1.9670    -1.1720    -3.2990 c3         1 35D      -0.038900
      9 C09          1.4600    -0.0080    -2.4480 c3         1 35D       0.048500
     10 C10          3.9880    -2.2050    -4.2980 ca         1 35D       0.254300
     11 N11          3.7710    -3.4460    -3.9330 nb         1 35D      -0.496000
     12 C12          4.2080    -4.4520    -4.7020 ca         1 35D       0.222300
     13 C13          3.9900    -5.7910    -4.3350 ca         1 35D      -0.119300
     14 C14          4.4460    -6.7930    -5.1360 ca         1 35D      -0.107000
     15 C15          5.1280    -6.5120    -6.3180 ca         1 35D      -0.076000
     16 C16          5.3570    -5.2270    -6.7050 ca         1 35D      -0.154300
     17 C17          4.9010    -4.1660    -5.9040 ca         1 35D       0.307300
     18 N18          5.1120    -2.8930    -6.2600 nb         1 35D      -0.635000
     19 C19          4.6730    -1.9190    -5.4890 ca         1 35D       0.524300
     20 O20          4.8810    -0.6290    -5.8520 os         1 35D      -0.384100
     21 C21          5.5860    -0.4040    -7.0750 cy         1 35D       0.127100
     22 C22          4.7260     0.2420    -8.1750 cy         1 35D       0.118800
     23 N23          5.1910     1.5400    -7.6390 nn         1 35D      -0.498300
     24 C24          6.4050     0.8990    -7.0870 cy         1 35D       0.118800
     25 C25          5.5150     2.4140    -8.6660 ca         1 35D       0.488200
     26 C26          5.9780     3.7010    -8.3500 ca         1 35D      -0.216300
     27 C27          6.3000     4.5690    -9.3480 ca         1 35D      -0.039000
     28 C28          6.1550     4.1390   -10.6830 ca         1 35D      -0.164300
     29 C29          6.4690     4.9820   -11.7600 ca         1 35D      -0.074000
     30 C30          6.3150     4.5320   -13.0360 ca         1 35D      -0.105000
     31 C31          5.8500     3.2440   -13.2880 ca         1 35D      -0.086000
     32 C32          5.5360     2.3990   -12.2670 ca         1 35D      -0.150300
     33 C33          5.6810     2.8280   -10.9370 ca         1 35D       0.393600
     34 N34          5.3860     2.0160    -9.9150 nb         1 35D      -0.613000
     35 H1          -0.3610     0.1020     1.0160 hc         1 35D       0.024033
     36 H2          -0.3610    -0.9310    -0.4200 hc         1 35D       0.024033
     37 H3          -0.3610     0.8290    -0.5960 hc         1 35D       0.024033
     38 H4           4.0230    -0.1200    -0.1740 h1         1 35D       0.030700
     39 H5           4.0070     0.9310    -1.6030 h1         1 35D       0.030700
     40 H6           5.2110    -1.1240    -2.1470 hc         1 35D       0.030200
     41 H7           3.8480    -2.1060    -1.5810 hc         1 35D       0.030200
     42 H8           3.7490    -0.1260    -3.8860 hc         1 35D       0.051700
     43 H9           1.5140    -1.1230    -4.2810 hc         1 35D       0.030200
     44 H10          1.7060    -2.1080    -2.8200 hc         1 35D       0.030200
     45 H11          0.4000    -0.1300    -2.2640 h1         1 35D       0.030700
     46 H12          1.6390     0.9250    -2.9680 h1         1 35D       0.030700
     47 H13          3.4620    -6.0240    -3.4180 ha         1 35D       0.118000
     48 H14          4.2760    -7.8240    -4.8510 ha         1 35D       0.107000
     49 H15          5.4800    -7.3270    -6.9390 ha         1 35D       0.105000
     50 H16          5.8880    -5.0230    -7.6270 ha         1 35D       0.119000
     51 H17          6.1500    -1.2580    -7.4300 h1         1 35D       0.058700
     52 H18          3.6640     0.0800    -8.0360 h1         1 35D       0.048200
     53 H19          5.0900     0.0390    -9.1750 h1         1 35D       0.048200
     54 H20          7.2310     0.8760    -7.7880 h1         1 35D       0.048200
     55 H21          6.6590     1.2520    -6.0950 h1         1 35D       0.048200
     56 H22          6.0090     4.0270    -7.3180 ha         1 35D       0.123000
     57 H23          6.6590     5.5660    -9.1220 ha         1 35D       0.111000
     58 H24          6.8310     5.9870   -11.5770 ha         1 35D       0.107000
     59 H25          6.5580     5.1840   -13.8660 ha         1 35D       0.104000
     60 H26          5.7370     2.9090   -14.3120 ha         1 35D       0.103000
     61 H27          5.1760     1.3990   -12.4800 ha         1 35D       0.117000
@<TRIPOS>BOND
     1     1     2 1   
     2     1    35 1   
     3     1    36 1   
     4     1    37 1   
     5     2     3 2   
     6     2     4 1   
     7     4     5 1   
     8     4     9 1   
     9     5     6 1   
    10     5    38 1   
    11     5    39 1   
    12     6     7 1   
    13     6    40 1   
    14     6    41 1   
    15     7     8 1   
    16     7    10 1   
    17     7    42 1   
    18     8     9 1   
    19     8    43 1   
    20     8    44 1   
    21     9    45 1   
    22     9    46 1   
    23    10    11 ar  
    24    10    19 ar  
    25    11    12 ar  
    26    12    13 ar  
    27    12    17 ar  
    28    13    14 ar  
    29    13    47 1   
    30    14    15 ar  
    31    14    48 1   
    32    15    16 ar  
    33    15    49 1   
    34    16    17 ar  
    35    16    50 1   
    36    17    18 ar  
    37    18    19 ar  
    38    19    20 1   
    39    20    21 1   
    40    21    22 1   
    41    21    24 1   
    42    21    51 1   
    43    22    23 1   
    44    22    52 1   
    45    22    53 1   
    46    23    24 1   
    47    23    25 1   
    48    24    54 1   
    49    24    55 1   
    50    25    26 ar  
    51    25    34 ar  
    52    26    27 ar  
    53    26    56 1   
    54    27    28 ar  
    55    27    57 1   
    56    28    29 ar  
    57    28    33 ar  
    58    29    30 ar  
    59    29    58 1   
    60    30    31 ar  
    61    30    59 1   
    62    31    32 ar  
    63    31    60 1   
    64    32    33 ar  
    65    32    61 1   
    66    33    34 ar  
@<TRIPOS>SUBSTRUCTURE
     1 35D         1 TEMP              0 ****  ****    0 ROOT
