@<TRIPOS>MOLECULE
molecule
   54    58     1     0     0
SMALL
bcc


@<TRIPOS>ATOM
      1 O01          0.0000     0.0000     0.0000 oh         1 35E      -0.612800
      2 C02          1.4290     0.0000     0.0000 c3         1 35E       0.144400
      3 C03          1.9390     0.0000     1.4430 c3         1 35E      -0.075700
      4 C04          3.4650     0.1260     1.4460 c3         1 35E      -0.075400
      5 C05          3.9750     0.0640     2.8870 c3         1 35E       0.167300
      6 N06          3.5690    -1.2080     3.4980 nh         1 35E      -0.682300
      7 C07          2.1060    -1.3300     3.5490 c3         1 35E       0.167300
      8 C08          1.5410    -1.3110     2.1270 c3         1 35E      -0.075400
      9 C09          4.1260    -1.3540     4.7640 ca         1 35E       0.495900
     10 N10          4.9030    -0.4050     5.2620 nb         1 35E      -0.682000
     11 C11          5.4320    -0.5460     6.4680 ca         1 35E       0.281900
     12 C12          5.1770    -1.6820     7.2090 ca         1 35E       0.299900
     13 N13          4.4010    -2.6370     6.7210 nb         1 35E      -0.723000
     14 C14          3.8620    -2.5040     5.5200 ca         1 35E       0.520300
     15 O15          3.0620    -3.4790     5.0200 os         1 35E      -0.395100
     16 C16          2.8380    -4.6230     5.8470 cy         1 35E       0.099100
     17 C17          2.5940    -5.9210     5.0560 cy         1 35E       0.120800
     18 N18          1.1590    -5.5680     5.1140 nn         1 35E      -0.651300
     19 C19          1.3850    -4.7610     6.3320 cy         1 35E       0.120800
     20 C20          0.3830    -6.6830     5.3930 ca         1 35E       0.590200
     21 C21         -1.0090    -6.5440     5.4870 ca         1 35E      -0.241300
     22 C22         -1.7830    -7.6310     5.7600 ca         1 35E      -0.070000
     23 C23         -1.1470    -8.8760     5.9410 ca         1 35E      -0.169300
     24 C24         -1.8840   -10.0350     6.2250 ca         1 35E      -0.104000
     25 C25         -1.2360   -11.2220     6.3940 ca         1 35E      -0.134000
     26 C26          0.1510   -11.2990     6.2890 ca         1 35E      -0.114000
     27 C27          0.8960   -10.1920     6.0150 ca         1 35E      -0.173300
     28 C28          0.2630    -8.9520     5.8340 ca         1 35E       0.440600
     29 N29          0.9710    -7.8500     5.5580 nb         1 35E      -0.736000
     30 H1          -0.3140     0.2120    -0.8630 ho         1 35E       0.401000
     31 H2           1.7900     0.8850    -0.5110 h1         1 35E       0.022200
     32 H3           1.7900    -0.8840    -0.5110 h1         1 35E       0.022200
     33 H4           1.5080     0.8340     1.9850 hc         1 35E       0.060700
     34 H5           3.7500     1.0720     1.0030 hc         1 35E       0.056200
     35 H6           3.8950    -0.6900     0.8770 hc         1 35E       0.056200
     36 H7           5.0550     0.1360     2.8900 h1         1 35E       0.054450
     37 H8           3.5520     0.8860     3.4530 h1         1 35E       0.054450
     38 H9           1.6950    -0.4990     4.1100 h1         1 35E       0.054450
     39 H10          1.8390    -2.2640     4.0290 h1         1 35E       0.054450
     40 H11          0.4610    -1.3830     2.1670 hc         1 35E       0.056200
     41 H12          1.9450    -2.1460     1.5670 hc         1 35E       0.056200
     42 H13          6.0670     0.2320     6.8740 h4         1 35E       0.031100
     43 H14          5.6140    -1.7930     8.1940 h4         1 35E       0.030100
     44 H15          3.5610    -4.7470     6.6450 h1         1 35E       0.090700
     45 H16          2.8360    -6.8140     5.6190 h1         1 35E       0.082450
     46 H17          3.0000    -5.8900     4.0530 h1         1 35E       0.082450
     47 H18          1.2940    -5.3350     7.2470 h1         1 35E       0.082450
     48 H19          0.8430    -3.8230     6.3280 h1         1 35E       0.082450
     49 H20         -1.4730    -5.5880     5.2740 ha         1 35E       0.149000
     50 H21         -2.8600    -7.5420     5.8360 ha         1 35E       0.141000
     51 H22         -2.9630    -9.9870     6.3100 ha         1 35E       0.133000
     52 H23         -1.8060   -12.1170     6.6130 ha         1 35E       0.131000
     53 H24          0.6440   -12.2530     6.4270 ha         1 35E       0.133000
     54 H25          1.9740   -10.2690     5.9360 ha         1 35E       0.147000
@<TRIPOS>BOND
     1     2     1 1   
     2     2     3 1   
     3     8     3 1   
     4     8     7 1   
     5     3     4 1   
     6     7     6 1   
     7     4     5 1   
     8     6     5 1   
     9     6     9 1   
    10    10     9 ar  
    11    10    11 ar  
    12     9    14 ar  
    13    11    12 ar  
    14    14    15 1   
    15    14    13 ar  
    16    15    16 1   
    17    12    13 ar  
    18    16    17 1   
    19    16    19 1   
    20    17    18 1   
    21    19    18 1   
    22    18    20 1   
    23    29    20 ar  
    24    29    28 ar  
    25    20    21 ar  
    26    27    28 ar  
    27    27    26 ar  
    28    28    23 ar  
    29    21    22 ar  
    30    26    25 ar  
    31    23    22 ar  
    32    23    24 ar  
    33    25    24 ar  
    34     1    30 1   
    35     2    31 1   
    36     2    32 1   
    37     3    33 1   
    38     4    34 1   
    39     4    35 1   
    40     5    36 1   
    41     5    37 1   
    42     7    38 1   
    43     7    39 1   
    44     8    40 1   
    45     8    41 1   
    46    11    42 1   
    47    12    43 1   
    48    16    44 1   
    49    17    45 1   
    50    17    46 1   
    51    19    47 1   
    52    19    48 1   
    53    21    49 1   
    54    22    50 1   
    55    24    51 1   
    56    25    52 1   
    57    26    53 1   
    58    27    54 1   
@<TRIPOS>SUBSTRUCTURE
     1 35E         1 TEMP              0 ****  ****    0 ROOT
