@<TRIPOS>MOLECULE
35F
   43    43     1     0     0
SMALL
bcc


@<TRIPOS>ATOM
      1 C4          0.0200   -0.2740   -0.1870 c2        1 35F      0.021000
      2 C5          1.4230   -0.4610   -0.5820 c3        1 35F     -0.261000
      3 C6          1.8690    1.4070    2.0550 c1        1 35F      0.078000
      4 C10         2.4320    0.3190   -2.3080 c2        1 35F     -0.265000
      5 C13         2.1510    0.4280   -5.5530 c1        1 35F     -0.074000
      6 C15         1.6020   -0.8490   -2.0900 c1        1 35F      0.098000
      7 C17        -2.0660   -0.1560    1.0580 c2        1 35F      0.033000
      8 C20        -3.2290    2.0740    1.6030 c1        1 35F      0.174000
      9 C22         5.5320    1.1110   -5.8670 c2        1 35F      0.301000
     10 C24         6.3790    2.1750   -6.4150 c2        1 35F     -0.230000
     11 C26         8.6680    1.6770   -7.5580 c2        1 35F     -0.133000
     12 O23         5.7700   -0.0950   -5.8490 o         1 35F     -0.228000
     13 O28         4.0380    4.4550   -5.4770 o         1 35F     -0.285000
     14 C27         3.6580    5.5630   -5.3630 c1        1 35F      0.288000
     15 C25         7.5300    1.9110   -6.9870 c1        1 35F     -0.025000
     16 C12         3.3310    0.4960   -4.6830 c3        1 35F     -0.054000
     17 C11         3.1180    0.8870   -3.3050 c1        1 35F     -0.224000
     18 C14         1.1150   -0.5450   -5.3880 c3        1 35F     -0.285000
     19 C9          2.3020    0.7760   -0.9070 c2        1 35F      0.066000
     20 N8          2.7890    1.7730   -0.1980 n2        1 35F     -0.002000
     21 N7          2.4130    1.7550    1.0740 n2        1 35F      0.021000
     22 C3          0.9670    0.7520    3.0090 c3        1 35F     -0.055000
     23 C2         -0.0480    0.0120    2.3350 c1        1 35F     -0.030000
     24 C1         -0.5510   -0.1090    1.0380 c2        1 35F     -0.095000
     25 N21        -2.6890    1.0480    1.3600 n2        1 35F     -0.338000
     26 N19        -3.9160   -1.5300    0.6960 n3        1 35F     -0.279000
     27 N18        -2.6280   -1.3240    0.8110 n2        1 35F     -0.014000
     28 H4         -0.6780   -0.4250   -1.0440 ha        1 35F      0.178000
     29 H13         0.1190   -0.0250   -5.4690 hc        1 35F      0.144667
     30 H15         1.1730   -1.2440   -6.2730 hc        1 35F      0.144667
     31 H20        -4.1310   -2.5100    0.7770 hn        1 35F      0.215500
     32 H26         6.0160    3.2170   -6.3330 ha        1 35F      0.176000
     33 H27         9.6160    1.6540   -6.9940 ha        1 35F      0.178500
     34 H25         8.7560    1.4870   -8.6420 ha        1 35F      0.178500
     35 HN16        3.7180    2.0890   -6.0030 hn        1 35F      0.266500
     36 H11         3.9170   -0.4830   -4.7290 hx        1 35F      0.204000
     37 H14         1.1400   -1.1490   -4.4410 hc        1 35F      0.144667
     38 H3          1.5700    0.0770    3.6920 hc        1 35F      0.211500
     39 H2          0.4590    1.5200    3.6770 hc        1 35F      0.211500
     40 HN19       -4.5700   -0.9260    1.1630 hn        1 35F      0.215500
     41 H141        1.9550   -1.1880    0.0840 hc        1 35F      0.162000
     42 N16         4.2480    1.5890   -5.2730 n4        1 35F     -0.101000
     43 H162        4.4560    2.2570   -4.5100 hn        1 35F      0.266500
@<TRIPOS>BOND
     1    1    2 1
     2    1   24 1
     3    1   28 1
     4    2    6 1
     5    2   19 1
     6    2   41 1
     7    3   21 1
     8    3   22 1
     9    4    6 1
    10    4   17 1
    11    4   19 1
    12    5   16 1
    13    5   18 1
    14    7   24 1
    15    7   25 1
    16    7   27 1
    17    8   25 1
    18    9   10 1
    19    9   12 1
    20    9   42 1
    21   10   15 1
    22   10   32 1
    23   11   15 1
    24   11   33 1
    25   11   34 1
    26   13   14 1
    27   16   17 1
    28   16   36 1
    29   16   42 1
    30   18   29 1
    31   18   30 1
    32   18   37 1
    33   19   20 1
    34   20   21 1
    35   22   23 1
    36   22   38 1
    37   22   39 1
    38   23   24 1
    39   26   27 1
    40   26   31 1
    41   26   40 1
    42   35   42 1
    43   42   43 1
@<TRIPOS>SUBSTRUCTURE
     1 35F         1 TEMP              0 ****  ****    0 ROOT
