@<TRIPOS>MOLECULE
molecule
   36    39     1     0     0
SMALL
bcc


@<TRIPOS>ATOM
      1 P            0.0000     0.0000     0.0000 p5         1 35G       1.529500
      2 O1P         -0.5050    -0.6230    -1.2440 o          1 35G      -0.734300
      3 O2P         -0.5510     1.5080     0.1220 oh         1 35G      -0.733400
      4 O5'          1.6230     0.0000     0.0000 os         1 35G      -0.524200
      5 C5'          2.3520     0.0000     1.2510 c3         1 35G       0.190400
      6 C4'          1.7600    -1.1080     2.1000 c3         1 35G       0.032100
      7 O4'          2.3750    -1.3400     3.3650 os         1 35G      -0.382600
      8 C3'          0.3050    -0.7300     2.4850 c3         1 35G       0.117100
      9 O3'         -0.4750    -0.8740     1.2940 os         1 35G      -0.500200
     10 C2'          0.0100    -1.7710     3.5730 c3         1 35G       0.115100
     11 O2'         -0.6070    -2.9290     3.0070 oh         1 35G      -0.563800
     12 C1'          1.4160    -2.1170     4.1240 c3         1 35G       0.233800
     13 N9           1.4970    -1.7590     5.5430 na         1 35G      -0.170900
     14 C8           1.9690    -0.5860     6.0550 cc         1 35G       0.509400
     15 N7           1.8940    -0.6090     7.3530 nd         1 35G      -0.611000
     16 C5           1.3710    -1.7950     7.7510 cd         1 35G       0.315800
     17 C6           1.0660    -2.3640     9.0100 c          1 35G       0.623000
     18 O6           1.2760    -1.7490    10.0410 o          1 35G      -0.518500
     19 N1           0.5380    -3.6070     9.0400 ns         1 35G      -0.466400
     20 C2           0.3080    -4.2860     7.8820 cd         1 35G       0.455800
     21 N2          -0.2310    -5.5470     7.9430 nz         1 35G      -0.727600
     22 N3           0.5870    -3.7680     6.7060 nc         1 35G      -0.552100
     23 C4           1.1070    -2.5410     6.5970 cc         1 35G       0.019800
     24 HOP2        -0.9710     1.7550    -0.6850 ho         1 35G       0.491000
     25 H5'1         3.4010    -0.1960     1.0670 h1         1 35G       0.080200
     26 H5'2         2.2290     0.9540     1.7500 h1         1 35G       0.080200
     27 H4'          1.7520    -2.0300     1.5310 h1         1 35G       0.104700
     28 H3'          0.2520     0.2790     2.8770 h1         1 35G       0.074700
     29 H2'         -0.6080    -1.3420     4.3510 h1         1 35G       0.066700
     30 HO2'        -1.5070    -2.9730     3.2840 ho         1 35G       0.425000
     31 H1'          1.6130    -3.1740     3.9930 h2         1 35G       0.118700
     32 H8           2.3510     0.2410     5.4680 h5         1 35G       0.110100
     33 HN1          0.3140    -4.0320     9.9190 hn         1 35G       0.352500
     34 HN21        -1.1590    -5.4960     8.3150 hn         1 35G       0.479467
     35 HN22        -0.2610    -5.9420     7.0240 hn         1 35G       0.479467
     36 H23          0.3340    -6.1230     8.5350 hn         1 35G       0.479467
@<TRIPOS>BOND
     1     1     2 2
     2     1     3 1
     3     1     4 1
     4     1     9 1
     5     3    24 1
     6     4     5 1
     7     5     6 1
     8     5    25 1
     9     5    26 1
    10     6     7 1
    11     6     8 1
    12     6    27 1
    13     7    12 1
    14     8     9 1
    15     8    10 1
    16     8    28 1
    17    10    11 1
    18    10    12 1
    19    10    29 1
    20    11    30 1
    21    12    13 1
    22    12    31 1
    23    13    14 1
    24    13    23 1
    25    14    15 2
    26    14    32 1
    27    15    16 1
    28    16    17 1
    29    16    23 2
    30    17    18 2
    31    17    19 1
    32    19    20 1
    33    19    33 1
    34    20    21 1
    35    20    22 2
    36    21    34 1
    37    21    35 1
    38    22    23 1
    39    36    21 1
@<TRIPOS>SUBSTRUCTURE
     1 35G         1 TEMP              0 ****  ****    0 ROOT
