@<TRIPOS>MOLECULE
molecule
   55    57     1     0     0
SMALL
bcc


@<TRIPOS>ATOM
      1 C1           0.0000     0.0000     0.0000 ca         1 35H      -0.112300
      2 C2           1.3820     0.0000     0.0000 ca         1 35H      -0.116000
      3 C3          -0.6910    -0.0010     1.1980 ca         1 35H      -0.116000
      4 C4           2.0730     0.0000     1.1970 ca         1 35H      -0.111500
      5 C5          -0.0000    -0.0010     2.3950 ca         1 35H      -0.111500
      6 C6           1.3830     0.0010     2.3940 ca         1 35H      -0.103300
      7 C7           2.1360    -0.0010     3.7000 c3         1 35H       0.198400
      8 C8           2.1760     1.4200     4.2670 c3         1 35H       0.131400
      9 O9           2.9870     1.4400     5.4430 oh         1 35H      -0.611800
     10 C11         -0.7530     0.0050    -1.3050 c3         1 35H       0.157300
     11 C15         -0.2780     3.4520    -2.8330 ca         1 35H      -0.083600
     12 C17          0.6400     5.6460    -3.1680 ca         1 35H      -0.033500
     13 C18         -0.6240     6.1250    -3.4680 ca         1 35H      -0.297500
     14 C19          0.8190     4.3150    -2.8510 ca         1 35H      -0.120000
     15 C21         -1.5480     3.9410    -3.1380 ca         1 35H      -0.120000
     16 C27          2.5780     6.8200    -7.6520 ca         1 35H      -0.135000
     17 C30          1.5780     7.9770    -5.8100 ca         1 35H      -0.152000
     18 C31          0.2020     6.7630    -7.3630 ca         1 35H      -0.152000
     19 S22         -0.8440     7.8260    -3.8710 sy         1 35H       1.424200
     20 O24          0.3130     8.5020    -3.4010 o          1 35H      -0.633300
     21 N23         -0.8170     7.9460    -5.5230 nu         1 35H      -0.770500
     22 C26          0.3220     7.5620    -6.2320 ca         1 35H       0.131600
     23 C29          1.3300     6.3980    -8.0720 ca         1 35H      -0.111000
     24 C28          2.7030     7.6050    -6.5200 ca         1 35H      -0.111000
     25 C20         -1.7140     5.2740    -3.4520 ca         1 35H      -0.033500
     26 C13         -0.0910     2.0230    -2.5010 c          1 35H       0.671700
     27 O16          0.8740     1.4200    -2.9280 o          1 35H      -0.600100
     28 N12         -0.9920     1.3890    -1.7240 n          1 35H      -0.483800
     29 C14         -2.2100     2.0830    -1.3000 c3         1 35H       0.086300
     30 O10          1.4800    -0.8660     4.6280 oh         1 35H      -0.596800
     31 H1           1.9240     0.0000    -0.9380 ha         1 35H       0.139000
     32 H2          -1.7740    -0.0010     1.1980 ha         1 35H       0.139000
     33 H3           3.1560     0.0010     1.1970 ha         1 35H       0.139500
     34 H4          -0.5420    -0.0010     3.3330 ha         1 35H       0.139500
     35 H5           3.1470    -0.3520     3.5320 h1         1 35H       0.048700
     36 H6           2.5940     2.0920     3.5280 h1         1 35H       0.033200
     37 H7           1.1710     1.7380     4.5160 h1         1 35H       0.033200
     38 H8           3.1060     2.3310     5.7270 ho         1 35H       0.405000
     39 H9          -0.1690    -0.5050    -2.0610 h1         1 35H       0.068200
     40 H10         -1.7020    -0.5020    -1.1770 h1         1 35H       0.068200
     41 H11          1.4900     6.3170    -3.1820 ha         1 35H       0.154500
     42 H12          1.8080     3.9420    -2.6160 ha         1 35H       0.152000
     43 H13         -2.4030     3.2760    -3.1260 ha         1 35H       0.152000
     44 H15          1.6750     8.5960    -4.9260 ha         1 35H       0.155500
     45 H16         -0.7760     6.4350    -7.6930 ha         1 35H       0.155500
     46 H17         -1.6080     8.3180    -6.0100 hn         1 35H       0.465800
     47 H18          1.2370     5.7790    -8.9560 ha         1 35H       0.135500
     48 H19          3.6830     7.9310    -6.1930 ha         1 35H       0.135500
     49 H20         -2.7010     5.6550    -3.6880 ha         1 35H       0.154500
     50 H21         -1.9820     3.1230    -1.0990 h1         1 35H       0.044367
     51 H22         -2.5960     1.6180    -0.4010 h1         1 35H       0.044367
     52 H23         -2.9530     2.0220    -2.0860 h1         1 35H       0.044367
     53 H24          2.0830    -1.5300     4.9190 ho         1 35H       0.410000
     54 H14          3.4610     6.5300    -8.2090 ha         1 35H       0.132000
     55 O25         -2.1630     8.1670    -3.4650 o          1 35H      -0.633300
@<TRIPOS>BOND
     1    23    18 ar  
     2    23    16 ar  
     3    18    22 ar  
     4    16    24 ar  
     5    27    26 2   
     6    15    25 ar  
     7    15    11 ar  
     8    22    21 1   
     9    22    17 ar  
    10    25    13 ar  
    11    24    17 ar  
    12    21    19 1   
    13    26    11 1   
    14    26    28 1   
    15    29    28 1   
    16    11    14 ar  
    17    28    10 1   
    18    13    19 1   
    19    13    12 ar  
    20    20    19 2   
    21    19    55 2   
    22    10     1 1   
    23    14    12 ar  
    24     1     3 ar  
    25     1     2 ar  
    26     3     5 ar  
    27     2     4 ar  
    28     5     6 ar  
    29     4     6 ar  
    30     6     7 1   
    31     7    30 1   
    32     7     8 1   
    33     8     9 1   
    34     2    31 1   
    35     3    32 1   
    36     4    33 1   
    37     5    34 1   
    38     7    35 1   
    39     8    36 1   
    40     8    37 1   
    41     9    38 1   
    42    10    39 1   
    43    10    40 1   
    44    12    41 1   
    45    14    42 1   
    46    15    43 1   
    47    16    54 1   
    48    17    44 1   
    49    18    45 1   
    50    21    46 1   
    51    23    47 1   
    52    24    48 1   
    53    25    49 1   
    54    29    50 1   
    55    29    51 1   
    56    29    52 1   
    57    30    53 1   
@<TRIPOS>SUBSTRUCTURE
     1 35H         1 TEMP              0 ****  ****    0 ROOT
