@<TRIPOS>MOLECULE
35H
   55    57     1     0     0
SMALL
bcc


@<TRIPOS>ATOM
      1 C1           0.0000     0.0000     0.0000 ca         1 35H      -0.126300
      2 C2           1.3820     0.0000     0.0000 ca         1 35H      -0.090000
      3 C3          -0.6910    -0.0010     1.1980 ca         1 35H      -0.090000
      4 C4           2.0730     0.0000     1.1970 ca         1 35H      -0.082500
      5 C5          -0.0000    -0.0010     2.3950 ca         1 35H      -0.082500
      6 C6           1.3830     0.0010     2.3940 ca         1 35H      -0.115300
      7 C7           2.1360    -0.0010     3.7000 c3         1 35H       0.243400
      8 C8           2.1760     1.4200     4.2670 c3         1 35H       0.206400
      9 O9           2.9870     1.4400     5.4430 oh         1 35H      -0.592800
     10 C11         -0.7530     0.0050    -1.3050 c3         1 35H       0.113300
     11 C15         -0.2780     3.4520    -2.8330 ca         1 35H      -0.091600
     12 C17          0.6400     5.6460    -3.1680 ca         1 35H      -0.000500
     13 C18         -0.6240     6.1250    -3.4680 ca         1 35H      -0.145500
     14 C19          0.8190     4.3150    -2.8510 ca         1 35H      -0.106000
     15 C21         -1.5480     3.9410    -3.1380 ca         1 35H      -0.106000
     16 C27          2.5780     6.8200    -7.6520 ca         1 35H      -0.115000
     17 C30          1.5780     7.9770    -5.8100 ca         1 35H      -0.141000
     18 C31          0.2020     6.7630    -7.3630 ca         1 35H      -0.141000
     19 S22         -0.8440     7.8260    -3.8710 sy         1 35H       1.040200
     20 O24          0.3130     8.5020    -3.4010 o          1 35H      -0.587300
     21 N23         -0.8170     7.9460    -5.5230 nu         1 35H      -0.395500
     22 C26          0.3220     7.5620    -6.2320 ca         1 35H       0.051600
     23 C29          1.3300     6.3980    -8.0720 ca         1 35H      -0.079500
     24 C28          2.7030     7.6050    -6.5200 ca         1 35H      -0.079500
     25 C20         -1.7140     5.2740    -3.4520 ca         1 35H      -0.000500
     26 C13         -0.0910     2.0230    -2.5010 c          1 35H       0.604700
     27 O16          0.8740     1.4200    -2.9280 o          1 35H      -0.642100
     28 N12         -0.9920     1.3890    -1.7240 n          1 35H      -0.144800
     29 C14         -2.2100     2.0830    -1.3000 c3         1 35H       0.058300
     30 O10          1.4800    -0.8660     4.6280 oh         1 35H      -0.579800
     31 H1           1.9240     0.0000    -0.9380 ha         1 35H       0.114500
     32 H2          -1.7740    -0.0010     1.1980 ha         1 35H       0.114500
     33 H3           3.1560     0.0010     1.1970 ha         1 35H       0.113500
     34 H4          -0.5420    -0.0010     3.3330 ha         1 35H       0.113500
     35 H5           3.1470    -0.3520     3.5320 h1         1 35H       0.010700
     36 H6           2.5940     2.0920     3.5280 h1         1 35H      -0.003800
     37 H7           1.1710     1.7380     4.5160 h1         1 35H      -0.003800
     38 H8           3.1060     2.3310     5.7270 ho         1 35H       0.391000
     39 H9          -0.1690    -0.5050    -2.0610 h1         1 35H       0.037200
     40 H10         -1.7020    -0.5020    -1.1770 h1         1 35H       0.037200
     41 H11          1.4900     6.3170    -3.1820 ha         1 35H       0.125500
     42 H12          1.8080     3.9420    -2.6160 ha         1 35H       0.127000
     43 H13         -2.4030     3.2760    -3.1260 ha         1 35H       0.127000
     44 H15          1.6750     8.5960    -4.9260 ha         1 35H       0.134500
     45 H16         -0.7760     6.4350    -7.6930 ha         1 35H       0.134500
     46 H17         -1.6080     8.3180    -6.0100 hn         1 35H       0.347800
     47 H18          1.2370     5.7790    -8.9560 ha         1 35H       0.104000
     48 H19          3.6830     7.9310    -6.1930 ha         1 35H       0.104000
     49 H20         -2.7010     5.6550    -3.6880 ha         1 35H       0.125500
     50 H21         -1.9820     3.1230    -1.0990 h1         1 35H       0.017700
     51 H22         -2.5960     1.6180    -0.4010 h1         1 35H       0.017700
     52 H23         -2.9530     2.0220    -2.0860 h1         1 35H       0.017700
     53 H24          2.0830    -1.5300     4.9190 ho         1 35H       0.395000
     54 H14          3.4610     6.5300    -8.2090 ha         1 35H       0.104000
     55 O25         -2.1630     8.1670    -3.4650 o          1 35H      -0.587300
@<TRIPOS>BOND
     1     1     2 ar  
     2     1     3 ar  
     3     1    10 1   
     4     2     4 ar  
     5     2    31 1   
     6     3     5 ar  
     7     3    32 1   
     8     4     6 ar  
     9     4    33 1   
    10     5     6 ar  
    11     5    34 1   
    12     6     7 1   
    13     7     8 1   
    14     7    30 1   
    15     7    35 1   
    16     8     9 1   
    17     8    36 1   
    18     8    37 1   
    19     9    38 1   
    20    10    28 1   
    21    10    39 1   
    22    10    40 1   
    23    11    14 ar  
    24    11    15 ar  
    25    11    26 1   
    26    12    13 ar  
    27    12    14 ar  
    28    12    41 1   
    29    13    19 1   
    30    13    25 ar  
    31    14    42 1   
    32    15    25 ar  
    33    15    43 1   
    34    16    23 ar  
    35    16    24 ar  
    36    16    54 1   
    37    17    22 ar  
    38    17    24 ar  
    39    17    44 1   
    40    18    22 ar  
    41    18    23 ar  
    42    18    45 1   
    43    19    20 2   
    44    19    21 1   
    45    19    55 2   
    46    21    22 1   
    47    21    46 1   
    48    23    47 1   
    49    24    48 1   
    50    25    49 1   
    51    26    27 2   
    52    26    28 1   
    53    28    29 1   
    54    29    50 1   
    55    29    51 1   
    56    29    52 1   
    57    30    53 1   
@<TRIPOS>SUBSTRUCTURE
     1 35H         1 TEMP              0 ****  ****    0 ROOT
