@<TRIPOS>MOLECULE
35I
   66    71     1     0     0
SMALL
bcc


@<TRIPOS>ATOM
      1 O01          0.0000     0.0000     0.0000 o          1 35I      -0.437000
      2 C02          1.2170     0.0000     0.0000 c3         1 35I       0.324000
      3 N03          1.8910     0.0000     1.1670 n3         1 35I       0.015000
      4 N04          3.2940     0.0070     1.1720 n2         1 35I      -0.094000
      5 C05          3.9380     0.6000     2.1320 c2         1 35I      -0.028000
      6 C06          3.1910     1.2390     3.2300 ca         1 35I      -0.104000
      7 C07          3.8280     2.1080     4.1160 ca         1 35I      -0.060000
      8 C08          3.1030     2.7060     5.1260 ca         1 35I      -0.100000
      9 C09          1.7510     2.4480     5.2610 ca         1 35I      -0.077000
     10 C10          1.1120     1.5820     4.3880 ca         1 35I      -0.085000
     11 C11          1.8270     0.9740     3.3800 ca         1 35I      -0.082000
     12 C12          1.1610    -0.0010     2.4410 c3         1 35I      -0.012000
     13 C13          1.1880    -1.4060     3.0470 c3         1 35I      -0.120000
     14 C14          0.4170    -2.3680     2.1400 c3         1 35I      -0.174000
     15 C15          0.4440    -3.7730     2.7460 c3         1 35I       0.356000
     16 F16          1.7700    -4.2040     2.8650 f          1 35I      -0.138000
     17 F17         -0.1520    -3.7460     4.0110 f          1 35I      -0.138000
     18 F18         -0.2600    -4.6520     1.9170 f          1 35I      -0.138000
     19 C19          1.9490    -0.0040    -1.2650 c2         1 35I      -0.102000
     20 C20          1.2740    -0.0090    -2.4360 c2         1 35I      -0.011000
     21 C21          2.0090    -0.0140    -3.7070 c3         1 35I       0.011000
     22 C22          1.3130    -0.0190    -4.9250 c2         1 35I      -0.017000
     23 O23         -0.0460    -0.0190    -4.9340 os         1 35I      -0.193000
     24 C24         -0.6950     1.2530    -4.9430 c3         1 35I       0.059000
     25 C25          2.0190    -0.0230    -6.1220 c2         1 35I       0.123000
     26 O26          1.3510    -0.0280    -7.3060 os         1 35I      -0.172000
     27 C27          2.1410    -0.0320    -8.4970 c3         1 35I       0.051000
     28 C28          3.4050    -0.0210    -6.1080 c2         1 35I      -0.246000
     29 C29          4.0930    -0.0170    -4.9070 c2         1 35I      -0.018000
     30 C30          5.6010    -0.0090    -4.9070 c3         1 35I       0.019000
     31 C31          6.1110    -1.4280    -4.8920 c2         1 35I      -0.285000
     32 C32          6.4460    -2.0440    -3.7030 c2         1 35I       0.031000
     33 N33          6.8910    -3.2930    -3.7240 n2         1 35I      -0.158000
     34 C34          7.0170    -3.9520    -4.8650 c2         1 35I       0.039000
     35 N35          7.4860    -5.2540    -4.8440 nv         1 35I      -0.037000
     36 N36          6.7060    -3.3960    -6.0270 n2         1 35I      -0.178000
     37 C37          6.2480    -2.1500    -6.0800 c2         1 35I       0.031000
     38 N38          5.9220    -1.5710    -7.2960 nv         1 35I       0.065000
     39 C39          3.4090    -0.0070    -3.7110 c2         1 35I      -0.178000
     40 H1           5.0220     0.6060     2.1370 h4         1 35I       0.133000
     41 H2           4.8870     2.3110     4.0120 ha         1 35I       0.109000
     42 H3           3.5940     3.3840     5.8130 ha         1 35I       0.108000
     43 H4           1.1890     2.9210     6.0570 ha         1 35I       0.107000
     44 H5           0.0530     1.3840     4.4980 ha         1 35I       0.114000
     45 H6           0.1360     0.3050     2.2690 h1         1 35I       0.118000
     46 H7           2.2140    -1.7400     3.1390 hc         1 35I       0.078000
     47 H8           0.7260    -1.3850     4.0270 hc         1 35I       0.078000
     48 H9          -0.6090    -2.0340     2.0490 hc         1 35I       0.103000
     49 H10          0.8790    -2.3890     1.1610 hc         1 35I       0.103000
     50 H11          1.4820     0.8720    -0.8310 DU         1 35I       0.067000
     51 H12          1.7410    -0.8850    -2.8690 DU         1 35I       0.133000
     52 H13          0.0290     2.0310    -4.7320 h1         1 35I       0.032333
     53 H14         -1.4710     1.2680    -4.1870 h1         1 35I       0.032333
     54 H15         -1.1370     1.4260    -5.9170 h1         1 35I       0.032333
     55 H16          2.7090    -0.9530    -8.5510 h1         1 35I       0.036667
     56 H17          2.8210     0.8110    -8.4830 h1         1 35I       0.036667
     57 H18          1.4920     0.0420    -9.3610 h1         1 35I       0.036667
     58 H19          3.9530    -0.0240    -7.0430 ha         1 35I       0.124000
     59 H20          5.9590     0.4940    -5.7970 hc         1 35I       0.060500
     60 H21          5.9590     0.5120    -4.0280 hc         1 35I       0.060500
     61 H22          6.3470    -1.5130    -2.7640 h4         1 35I       0.119000
     62 H23          6.8400    -6.0190    -4.8420 hn         1 35I       0.074500
     63 H24          8.4710    -5.4320    -4.8420 hn         1 35I       0.074500
     64 H25          6.0040    -2.1020    -8.1400 hn         1 35I       0.074000
     65 H26          5.6440    -0.6110    -7.3340 hn         1 35I       0.074000
     66 H27          3.9540    -0.0040    -2.7750 ha         1 35I       0.134000
@<TRIPOS>BOND
     1     1     2 1   
     2     2     3 1   
     3     2    19 1   
     4     2    50 1   
     5     3     4 1   
     6     3    12 1   
     7     4     5 1   
     8     5     6 1   
     9     5    40 1   
    10     6     7 1   
    11     6    11 1   
    12     7     8 1   
    13     7    41 1   
    14     8     9 1   
    15     8    42 1   
    16     9    10 1   
    17     9    43 1   
    18    10    11 1   
    19    10    44 1   
    20    11    12 1   
    21    12    13 1   
    22    12    45 1   
    23    13    14 1   
    24    13    46 1   
    25    13    47 1   
    26    14    15 1   
    27    14    48 1   
    28    14    49 1   
    29    15    16 1   
    30    15    17 1   
    31    15    18 1   
    32    19    20 1   
    33    19    50 1   
    34    20    21 1   
    35    20    51 1   
    36    21    22 1   
    37    21    39 1   
    38    21    51 1   
    39    22    23 1   
    40    22    25 1   
    41    23    24 1   
    42    24    52 1   
    43    24    53 1   
    44    24    54 1   
    45    25    26 1   
    46    25    28 1   
    47    26    27 1   
    48    27    55 1   
    49    27    56 1   
    50    27    57 1   
    51    28    29 1   
    52    28    58 1   
    53    29    30 1   
    54    29    39 1   
    55    30    31 1   
    56    30    59 1   
    57    30    60 1   
    58    31    32 1   
    59    31    37 1   
    60    32    33 1   
    61    32    61 1   
    62    33    34 1   
    63    34    35 1   
    64    34    36 1   
    65    35    62 1   
    66    35    63 1   
    67    36    37 1   
    68    37    38 1   
    69    38    64 1   
    70    38    65 1   
    71    39    66 1   
@<TRIPOS>SUBSTRUCTURE
     1 35I         1 TEMP              0 ****  ****    0 ROOT
