@<TRIPOS>MOLECULE
molecule
   66    69     1     0     0
SMALL
bcc


@<TRIPOS>ATOM
      1 O01          0.0000     0.0000     0.0000 o          1 35I      -0.612100
      2 C02          1.2170     0.0000     0.0000 c          1 35I       0.699300
      3 N03          1.8910     0.0000     1.1670 n          1 35I      -0.255800
      4 N04          3.2940     0.0070     1.1720 n2         1 35I      -0.444300
      5 C05          3.9380     0.6000     2.1320 ce         1 35I       0.421800
      6 C06          3.1910     1.2390     3.2300 ca         1 35I      -0.177900
      7 C07          3.8280     2.1080     4.1160 ca         1 35I      -0.096000
      8 C08          3.1030     2.7060     5.1260 ca         1 35I      -0.128000
      9 C09          1.7510     2.4480     5.2610 ca         1 35I      -0.108000
     10 C10          1.1120     1.5820     4.3880 ca         1 35I      -0.116000
     11 C11          1.8270     0.9740     3.3800 ca         1 35I      -0.077300
     12 C12          1.1610    -0.0010     2.4410 c3         1 35I       0.143000
     13 C13          1.1880    -1.4060     3.0470 c3         1 35I      -0.093400
     14 C14          0.4170    -2.3680     2.1400 c3         1 35I      -0.129400
     15 C15          0.4440    -3.7730     2.7460 c3         1 35I       0.612900
     16 F16          1.7700    -4.2040     2.8650 f          1 35I      -0.229300
     17 F17         -0.1520    -3.7460     4.0110 f          1 35I      -0.229300
     18 F18         -0.2600    -4.6520     1.9170 f          1 35I      -0.229300
     19 C19          1.9490    -0.0040    -1.2650 ce         1 35I      -0.237200
     20 C20          1.2740    -0.0090    -2.4360 cf         1 35I      -0.023200
     21 C21          2.0090    -0.0140    -3.7070 ca         1 35I      -0.056800
     22 C22          1.3130    -0.0190    -4.9250 ca         1 35I       0.102100
     23 O23         -0.0460    -0.0190    -4.9340 os         1 35I      -0.335900
     24 C24         -0.6950     1.2530    -4.9430 c3         1 35I       0.133700
     25 C25          2.0190    -0.0230    -6.1220 ca         1 35I       0.127100
     26 O26          1.3510    -0.0280    -7.3060 os         1 35I      -0.311900
     27 C27          2.1410    -0.0320    -8.4970 c3         1 35I       0.125700
     28 C28          3.4050    -0.0210    -6.1080 ca         1 35I      -0.204000
     29 C29          4.0930    -0.0170    -4.9070 ca         1 35I      -0.052300
     30 C30          5.6010    -0.0090    -4.9070 c3         1 35I       0.029200
     31 C31          6.1110    -1.4280    -4.8920 ca         1 35I      -0.413900
     32 C32          6.4460    -2.0440    -3.7030 ca         1 35I       0.503200
     33 N33          6.8910    -3.2930    -3.7240 nb         1 35I      -0.784000
     34 C34          7.0170    -3.9520    -4.8650 ca         1 35I       0.971900
     35 N35          7.4860    -5.2540    -4.8440 nv         1 35I      -1.060500
     36 N36          6.7060    -3.3960    -6.0270 nb         1 35I      -0.819000
     37 C37          6.2480    -2.1500    -6.0800 ca         1 35I       0.747200
     38 N38          5.9220    -1.5710    -7.2960 nv         1 35I      -1.007500
     39 C39          3.4090    -0.0070    -3.7110 ca         1 35I      -0.133000
     40 H1           5.0150     0.7030     2.0780 h4         1 35I       0.052800
     41 H2           4.8870     2.3110     4.0120 ha         1 35I       0.136000
     42 H3           3.5940     3.3840     5.8130 ha         1 35I       0.136000
     43 H4           1.1890     2.9210     6.0570 ha         1 35I       0.137000
     44 H5           0.0530     1.3840     4.4980 ha         1 35I       0.140000
     45 H6           0.1360     0.3050     2.2690 h1         1 35I       0.103700
     46 H7           0.7260    -1.3850     4.0270 hc         1 35I       0.067200
     47 H8           2.2140    -1.7400     3.1390 hc         1 35I       0.067200
     48 H9          -0.6090    -2.0340     2.0490 hc         1 35I       0.089200
     49 H10          0.8790    -2.3890     1.1610 hc         1 35I       0.089200
     50 H11          3.0320    -0.0030    -1.2650 ha         1 35I       0.150000
     51 H12          0.1910    -0.0110    -2.4360 ha         1 35I       0.166000
     52 H13         -1.1370     1.4260    -5.9170 h1         1 35I       0.037367
     53 H14         -1.4710     1.2680    -4.1870 h1         1 35I       0.037367
     54 H15          0.0290     2.0310    -4.7330 h1         1 35I       0.037367
     55 H16          2.8220     0.8100    -8.4820 h1         1 35I       0.041367
     56 H17          1.4920     0.0450    -9.3610 h1         1 35I       0.041367
     57 H18          2.7070    -0.9540    -8.5520 h1         1 35I       0.041367
     58 H19          3.9530    -0.0240    -7.0430 ha         1 35I       0.131000
     59 H20          5.9590     0.5120    -4.0280 hc         1 35I       0.052200
     60 H21          5.9590     0.4940    -5.7970 hc         1 35I       0.052200
     61 H22          6.3470    -1.5130    -2.7640 h4         1 35I       0.026100
     62 H23          8.4710    -5.4320    -4.8530 hn         1 35I       0.444800
     63 H24          6.8400    -6.0190    -4.8330 hn         1 35I       0.444800
     64 H25          6.0050    -2.1020    -8.1400 hn         1 35I       0.441800
     65 H26          5.6440    -0.6110    -7.3340 hn         1 35I       0.441800
     66 H27          3.9540    -0.0040    -2.7750 ha         1 35I       0.143000
@<TRIPOS>BOND
     1    38    37 1
     2     8     7 ar
     3     8     9 ar
     4     7     6 ar
     5    37    36 ar
     6    37    31 ar
     7    36    34 ar
     8    30    31 1
     9    30    29 1
    10     9    10 ar
    11     6     5 1
    12     6    11 ar
    13    31    32 ar
    14     5     4 2
    15    34    35 1
    16    34    33 ar
    17    29    39 ar
    18    29    28 ar
    19    10    11 ar
    20     4     3 1
    21    11    12 1
    22    32    33 ar
    23    39    21 ar
    24    28    25 ar
    25     3    12 1
    26     3     2 1
    27    19     2 1
    28    19    20 2
    29    21    20 1
    30    21    22 ar
    31    12    13 1
    32    25    22 ar
    33    25    26 1
    34    27    26 1
    35     2     1 2
    36    22    23 1
    37    13    14 1
    38    23    24 1
    39    14    15 1
    40    16    15 1
    41    15    17 1
    42    15    18 1
    43     5    40 1
    44     7    41 1
    45     8    42 1
    46     9    43 1
    47    10    44 1
    48    12    45 1
    49    13    46 1
    50    13    47 1
    51    14    48 1
    52    14    49 1
    53    19    50 1
    54    20    51 1
    55    24    52 1
    56    24    53 1
    57    24    54 1
    58    27    55 1
    59    27    56 1
    60    27    57 1
    61    28    58 1
    62    30    59 1
    63    30    60 1
    64    32    61 1
    65    35    62 1
    66    35    63 1
    67    38    64 1
    68    38    65 1
    69    39    66 1
@<TRIPOS>SUBSTRUCTURE
     1 35I         1 TEMP              0 ****  ****    0 ROOT
