@<TRIPOS>MOLECULE
molecule
   18    18     1     0     0
SMALL
bcc


@<TRIPOS>ATOM
      1 CAJ          0.0000     0.0000     0.0000 cs         1 35J       0.392200
      2 SAB          1.6000     0.0000     0.0000 s          1 35J      -0.524400
      3 NAI         -0.6740     0.0000     1.1670 ns         1 35J      -0.487900
      4 CAG          0.0580     0.0000     2.4350 c3         1 35J       0.146300
      5 CAK         -0.9220    -0.0000     3.5810 ca         1 35J      -0.253600
      6 CAE         -1.3820     1.1950     4.1110 ca         1 35J      -0.076000
      7 CAC         -2.2830     1.1470     5.1630 ca         1 35J      -0.256300
      8 CAD         -2.6890    -0.0820     5.6470 ca         1 35J       0.430200
      9 NAH         -2.2310    -1.2000     5.1170 nb         1 35J      -0.688000
     10 CAF         -1.3760    -1.1930     4.1120 ca         1 35J       0.437200
     11 H1          -0.5420     0.0010    -0.9380 h5         1 35J       0.059200
     12 H3           0.6810     0.8850     2.4930 h1         1 35J       0.079700
     13 H4           0.6810    -0.8840     2.4930 h1         1 35J       0.079700
     14 H5          -1.0460     2.1450     3.7110 ha         1 35J       0.144000
     15 H6          -2.6630     2.0620     5.6010 ha         1 35J       0.143000
     16 H7          -3.3910    -0.1280     6.4700 h4         1 35J       0.028100
     17 H8          -1.0220    -2.1310     3.7040 h4         1 35J       0.029100
     18 H2          -1.6750    -0.0230     1.1670 hn         1 35J       0.317500
@<TRIPOS>BOND
     1     1     2 2   
     2     1     3 1   
     3     3     4 1   
     4     4     5 1   
     5     6     5 ar  
     6     6     7 ar  
     7     5    10 ar  
     8     7     8 ar  
     9    10     9 ar  
    10     8     9 ar  
    11     1    11 1   
    12     4    12 1   
    13     4    13 1   
    14     6    14 1   
    15     7    15 1   
    16     8    16 1   
    17    10    17 1   
    18     3    18 1   
@<TRIPOS>SUBSTRUCTURE
     1 35J         1 TEMP              0 ****  ****    0 ROOT
