@<TRIPOS>MOLECULE
35K
   32    33     1     0     0
SMALL
bcc


@<TRIPOS>ATOM
      1 C1           0.0000     0.0000     0.0000 ca         1 35K      -0.075000
      2 N1           2.0970     0.0010     3.5980 ns         1 35K      -0.004100
      3 O1           2.0490    -0.0000     5.8220 o          1 35K      -0.600500
      4 C2           1.3850     0.0000     0.0000 ca         1 35K      -0.089300
      5 N2          -0.7150     0.0130     3.5970 ns         1 35K      -0.000100
      6 O2          -0.6690     0.0260     5.8210 o          1 35K      -0.599500
      7 C3           2.0790     0.0000     1.1920 ca         1 35K      -0.112000
      8 N3           4.4850     0.8550    -2.8740 nz         1 35K       0.082400
      9 O3           2.2710     3.4510    -4.2030 o          1 35K      -0.816300
     10 C4          -0.6960     0.0060     1.1910 ca         1 35K      -0.101000
     11 O4           4.3330     3.4520    -3.4080 o          1 35K      -0.816300
     12 C5          -0.0060     0.0060     2.3990 ca         1 35K      -0.113400
     13 C6           1.3890     0.0010     2.4000 ca         1 35K      -0.112400
     14 C7           1.4360    -0.0010     4.7740 c          1 35K       0.523500
     15 C8          -0.0560     0.0140     4.7730 c          1 35K       0.523500
     16 C9           2.1360    -0.0020    -1.3070 c3         1 35K       0.017900
     17 C10          2.3900     1.4410    -1.7500 c3         1 35K      -0.020400
     18 C11          3.1530     1.4390    -3.0760 c3         1 35K      -0.205500
     19 C12          3.2970     2.8550    -3.5750 c          1 35K       0.956600
     20 H1          -0.5390    -0.0000    -0.9400 ha         1 35K       0.117000
     21 H2           3.0970     0.0020     3.5870 hn         1 35K       0.182500
     22 H3          -1.7160     0.0170     3.5860 hn         1 35K       0.186500
     23 H4           3.1620    -0.0000     1.1880 ha         1 35K       0.107000
     24 H5           4.4080    -0.1420    -2.8170 hn         1 35K       0.211133
     25 H6           4.8790     1.2080    -2.0240 hn         1 35K       0.211133
     26 H9          -1.7800     0.0060     1.1850 ha         1 35K       0.118000
     27 H10          3.0820    -0.5130    -1.1790 hc         1 35K       0.007700
     28 H11          1.5480    -0.5130    -2.0600 hc         1 35K       0.007700
     29 H12          2.9770     1.9520    -0.9970 hc         1 35K       0.057700
     30 H13          1.4440     1.9520    -1.8780 hc         1 35K       0.057700
     31 H14          2.6070     0.8520    -3.8050 hx         1 35K       0.087700
     32 H33          5.0770     1.1000    -3.6430 hn         1 35K       0.211133
@<TRIPOS>BOND
     1     1     4 ar  
     2     1    10 ar  
     3     1    20 1   
     4     2    13 1   
     5     2    14 1   
     6     2    21 1   
     7     3    14 2   
     8     4     7 ar  
     9     4    16 1   
    10     5    12 1   
    11     5    15 1   
    12     5    22 1   
    13     6    15 2   
    14     7    13 ar  
    15     7    23 1   
    16     8    18 1   
    17     8    24 1   
    18     8    25 1   
    19     8    32 1   
    20     9    19 1   
    21    10    12 ar  
    22    10    26 1   
    23    11    19 1   
    24    12    13 ar  
    25    14    15 1   
    26    16    17 1   
    27    16    27 1   
    28    16    28 1   
    29    17    18 1   
    30    17    29 1   
    31    17    30 1   
    32    18    19 1   
    33    18    31 1   
@<TRIPOS>SUBSTRUCTURE
     1 35K         1 TEMP              0 ****  ****    0 ROOT
