@<TRIPOS>MOLECULE
molecule
   39    41     1     0     0
SMALL
bcc


@<TRIPOS>ATOM
      1 O3           0.0000     0.0000     0.0000 o          1 35M      -0.601100
      2 C6           1.2160     0.0000     0.0000 c          1 35M       0.670700
      3 C5           1.9540     0.0000     1.2770 ca         1 35M      -0.152600
      4 C4           1.2580    -0.0010     2.4880 ca         1 35M      -0.073500
      5 C3           1.9510    -0.0020     3.6790 ca         1 35M      -0.165000
      6 C2           3.3400    -0.0010     3.6760 ca         1 35M       0.121100
      7 O4           4.0200    -0.0020     4.8520 oh         1 35M      -0.525100
      8 C1           4.0380    -0.0010     2.4730 ca         1 35M      -0.165000
      9 C            3.3520    -0.0050     1.2790 ca         1 35M      -0.073500
     10 N            1.8900    -0.0050    -1.1680 ns         1 35M      -0.465100
     11 C7           1.1930    -0.1190    -2.3780 ca         1 35M       0.010600
     12 C12          1.6700     0.5180    -3.5130 ca         1 35M      -0.116000
     13 C11          0.9760     0.4020    -4.7150 cp         1 35M      -0.113500
     14 C10         -0.1990    -0.3550    -4.7690 ca         1 35M       0.140100
     15 O2          -0.8810    -0.4720    -5.9380 oh         1 35M      -0.471100
     16 C9          -0.6660    -0.9870    -3.6280 ca         1 35M      -0.209000
     17 C8           0.0280    -0.8740    -2.4380 ca         1 35M      -0.102000
     18 C13          1.4810     1.0810    -5.9330 cp         1 35M       0.426800
     19 N1           0.6420     1.7760    -6.6920 nb         1 35M      -0.691000
     20 C17          1.0430     2.3960    -7.7830 ca         1 35M       0.374200
     21 C16          2.3630     2.3470    -8.1870 ca         1 35M      -0.212300
     22 C15          3.2860     1.6270    -7.4190 ca         1 35M      -0.079600
     23 C14          2.8300     0.9870    -6.2660 ca         1 35M      -0.210300
     24 C18          4.7110     1.5510    -7.8180 c          1 35M       0.883200
     25 O1           5.4970     0.9220    -7.1410 o          1 35M      -0.830800
     26 O            5.1320     2.1810    -8.9310 o          1 35M      -0.830800
     27 H            2.8860     0.0890    -1.1710 hn         1 35M       0.325500
     28 H4           0.1750    -0.0020     2.4910 ha         1 35M       0.147500
     29 HA           3.8960    -0.0050     0.3420 ha         1 35M       0.147500
     30 H3           1.4120    -0.0030     4.6180 ha         1 35M       0.142500
     31 HB           4.1320    -0.8900     5.1500 ho         1 35M       0.420000
     32 H1           5.1210    -0.0030     2.4750 ha         1 35M       0.142500
     33 H12          2.5360     1.1660    -3.4470 ha         1 35M       0.148000
     34 H8          -0.3270    -1.3900    -1.5550 ha         1 35M       0.149000
     35 H9          -1.5780    -1.5700    -3.6680 ha         1 35M       0.126000
     36 H14          3.5120     0.4190    -5.6450 ha         1 35M       0.150000
     37 H17          0.3250     2.9520    -8.3740 h4         1 35M       0.000100
     38 H16          2.6800     2.8590    -9.0880 ha         1 35M       0.158000
     39 H2          -1.3080    -1.3120    -5.9700 ho         1 35M       0.403000
@<TRIPOS>BOND
     1     1     2 2   
     2     2     3 1   
     3     2    10 1   
     4     3     4 ar  
     5     3     9 ar  
     6     4     5 ar  
     7     5     6 ar  
     8     6     7 1   
     9     6     8 ar  
    10     8     9 ar  
    11    10    11 1   
    12    11    12 ar  
    13    11    17 ar  
    14    12    13 ar  
    15    13    14 ar  
    16    13    18 1   
    17    14    15 1   
    18    14    16 ar  
    19    16    17 ar  
    20    18    19 ar  
    21    18    23 ar  
    22    19    20 ar  
    23    20    21 ar  
    24    21    22 ar  
    25    22    23 ar  
    26    22    24 1   
    27    24    25 1   
    28    24    26 1   
    29    10    27 1   
    30     4    28 1   
    31     9    29 1   
    32     5    30 1   
    33     7    31 1   
    34     8    32 1   
    35    12    33 1   
    36    17    34 1   
    37    16    35 1   
    38    23    36 1   
    39    20    37 1   
    40    21    38 1   
    41    15    39 1   
@<TRIPOS>SUBSTRUCTURE
     1 35M         1 TEMP              0 ****  ****    0 ROOT
