@<TRIPOS>MOLECULE
molecule
   53    56     1     0     0
SMALL
bcc


@<TRIPOS>ATOM
      1 C4           0.0000     0.0000     0.0000 c3         1 35O      -0.093900
      2 C1           1.5430     0.0000     0.0000 c3         1 35O      -0.082900
      3 C2           1.9230     0.0000     1.5020 c3         1 35O      -0.082900
      4 C3           0.8510    -0.9280     2.1250 c3         1 35O      -0.093900
      5 C5          -0.4400    -0.5900     1.3510 c3         1 35O       0.074000
      6 N8          -1.2280    -1.8050     1.1340 na         1 35O       0.068400
      7 C11         -2.5020    -1.9980     1.5270 cc         1 35O       0.165300
      8 N13         -3.4280    -1.2340     2.1930 na         1 35O      -0.717600
      9 N9          -0.7870    -2.9620     0.4780 nc         1 35O      -0.509800
     10 C10         -1.7500    -3.8440     0.4680 cd         1 35O       0.411200
     11 C12         -2.8640    -3.2830     1.1220 cd         1 35O      -0.424900
     12 C16         -4.2200    -3.7520     1.4300 c          1 35O       0.764100
     13 O17         -4.5850    -4.8680     1.0970 o          1 35O      -0.568100
     14 N15         -5.0500    -2.9270     2.0860 nd         1 35O      -0.792100
     15 C14         -4.6700    -1.7210     2.4500 cc         1 35O       0.912100
     16 N18         -5.5620    -0.9250     3.1170 nu         1 35O      -0.859200
     17 C19         -6.9090    -1.4210     3.4090 c3         1 35O       0.184500
     18 C20         -7.8160    -1.1750     2.2030 c3         1 35O      -0.108100
     19 C21         -7.4610    -0.6940     4.6090 c          1 35O       0.651100
     20 O22         -6.7960     0.1540     5.1640 o          1 35O      -0.607100
     21 N23         -8.6950    -0.9870     5.0650 ns         1 35O      -0.466100
     22 C24         -9.1670    -0.3940     6.2430 ca         1 35O       0.010600
     23 C29        -10.5180    -0.1020     6.3820 ca         1 35O      -0.103000
     24 C28        -10.9810     0.4780     7.5460 ca         1 35O      -0.174000
     25 C27        -10.0990     0.7690     8.5760 ca         1 35O       0.130100
     26 O30        -10.5570     1.3410     9.7220 os         1 35O      -0.329900
     27 C31         -9.5930     1.6140    10.7410 c3         1 35O       0.128700
     28 C26         -8.7500     0.4780     8.4380 ca         1 35O      -0.174000
     29 C25         -8.2840    -0.1020     7.2750 ca         1 35O      -0.103000
     30 H1          -0.3700     1.0140    -0.0990 hc         1 35O       0.061950
     31 H2          -0.3700    -0.6170    -0.8100 hc         1 35O       0.061950
     32 H3           1.9210     0.8920    -0.4850 hc         1 35O       0.051700
     33 H4           1.9210    -0.8920    -0.4850 hc         1 35O       0.051700
     34 H5           2.9150    -0.4110     1.6450 hc         1 35O       0.051700
     35 H6           1.8490     0.9990     1.9150 hc         1 35O       0.051700
     36 H7           1.1190    -1.9670     1.9760 hc         1 35O       0.061950
     37 H8           0.7280    -0.7090     3.1790 hc         1 35O       0.061950
     38 H9          -1.0190     0.1420     1.9020 h1         1 35O       0.055700
     39 H10         -3.1870    -0.3090     2.4910 hn         1 35O       0.438800
     40 H11         -1.7020    -4.8340     0.0310 h4         1 35O       0.068100
     41 H12         -5.3030     0.0050     3.3800 hn         1 35O       0.459800
     42 H13         -6.8660    -2.4830     3.6190 h1         1 35O       0.114700
     43 H14         -7.2560    -1.3410     1.2900 hc         1 35O       0.053033
     44 H15         -8.6570    -1.8570     2.2390 hc         1 35O       0.053033
     45 H16         -8.1780    -0.1550     2.2250 hc         1 35O       0.053033
     46 H17         -9.2630    -1.6530     4.5780 hn         1 35O       0.329500
     47 H18        -11.2070    -0.3300     5.5780 ha         1 35O       0.147500
     48 H19        -12.0350     0.7050     7.6550 ha         1 35O       0.143500
     49 H20        -10.0870     2.0630    11.5940 h1         1 35O       0.042367
     50 H21         -8.8450     2.2960    10.3560 h1         1 35O       0.042367
     51 H22         -9.1170     0.6900    11.0440 h1         1 35O       0.042367
     52 H23         -8.0620     0.7060     9.2430 ha         1 35O       0.143500
     53 H24         -7.2300    -0.3290     7.1670 ha         1 35O       0.147500
@<TRIPOS>BOND
     1    26    27 1
     2    26    25 1
     3    24    25 ar
     4    24    23 ar
     5    25    28 ar
     6    23    22 ar
     7    28    29 ar
     8    22    29 ar
     9    22    21 1
    10     2     3 1
    11     2     1 1
    12    21    19 1
    13     3     4 1
    14    20    19 2
    15    19    17 1
    16    18    17 1
    17     1     5 1
    18    17    16 1
    19     4     5 1
    20     5     6 1
    21     8     7 1
    22     8    15 1
    23    16    15 1
    24     6     7 1
    25     6     9 1
    26     7    11 2
    27    15    14 2
    28     9    10 2
    29    11    10 1
    30    11    12 1
    31    14    12 1
    32    12    13 2
    33     1    30 1
    34     1    31 1
    35     2    32 1
    36     2    33 1
    37     3    34 1
    38     3    35 1
    39     4    36 1
    40     4    37 1
    41     5    38 1
    42     8    39 1
    43    10    40 1
    44    16    41 1
    45    17    42 1
    46    18    43 1
    47    18    44 1
    48    18    45 1
    49    21    46 1
    50    23    47 1
    51    24    48 1
    52    27    49 1
    53    27    50 1
    54    27    51 1
    55    28    52 1
    56    29    53 1
@<TRIPOS>SUBSTRUCTURE
     1 35O         1 TEMP              0 ****  ****    0 ROOT
