@<TRIPOS>MOLECULE
35O
   53    56     1     0     0
SMALL
bcc


@<TRIPOS>ATOM
      1 C4           0.0000     0.0000     0.0000 c3         1 35O      -0.036900
      2 C1           1.5430     0.0000     0.0000 c3         1 35O      -0.019900
      3 C2           1.9230     0.0000     1.5020 c3         1 35O      -0.019900
      4 C3           0.8510    -0.9280     2.1250 c3         1 35O      -0.036900
      5 C5          -0.4400    -0.5900     1.3510 c3         1 35O      -0.043000
      6 N8          -1.2280    -1.8050     1.1340 na         1 35O       0.501400
      7 C11         -2.5020    -1.9980     1.5270 cc         1 35O      -0.159700
      8 N13         -3.4280    -1.2340     2.1930 na         1 35O      -0.209600
      9 N9          -0.7870    -2.9620     0.4780 nc         1 35O      -0.654800
     10 C10         -1.7500    -3.8440     0.4680 cd         1 35O       0.489200
     11 C12         -2.8640    -3.2830     1.1220 cd         1 35O      -0.435900
     12 C16         -4.2200    -3.7520     1.4300 c          1 35O       0.782100
     13 O17         -4.5850    -4.8680     1.0970 o          1 35O      -0.608100
     14 N15         -5.0500    -2.9270     2.0860 nc         1 35O      -0.727100
     15 C14         -4.6700    -1.7210     2.4500 cd         1 35O       0.567100
     16 N18         -5.5620    -0.9250     3.1170 nu         1 35O      -0.437200
     17 C19         -6.9090    -1.4210     3.4090 c3         1 35O       0.068500
     18 C20         -7.8160    -1.1750     2.2030 c3         1 35O      -0.011100
     19 C21         -7.4610    -0.6940     4.6090 c          1 35O       0.552100
     20 O22         -6.7960     0.1540     5.1640 o          1 35O      -0.653100
     21 N23         -8.6950    -0.9870     5.0650 ns         1 35O      -0.009100
     22 C24         -9.1670    -0.3940     6.2430 ca         1 35O      -0.144400
     23 C29        -10.5180    -0.1020     6.3820 ca         1 35O      -0.068000
     24 C28        -10.9810     0.4780     7.5460 ca         1 35O      -0.159500
     25 C27        -10.0990     0.7690     8.5760 ca         1 35O       0.145100
     26 O30        -10.5570     1.3410     9.7220 os         1 35O      -0.307900
     27 C31         -9.5930     1.6140    10.7410 c3         1 35O       0.244700
     28 C26         -8.7500     0.4780     8.4380 ca         1 35O      -0.159500
     29 C25         -8.2840    -0.1020     7.2750 ca         1 35O      -0.068000
     30 H1          -0.3700     1.0140    -0.0990 hc         1 35O       0.030950
     31 H2          -0.3700    -0.6170    -0.8100 hc         1 35O       0.030950
     32 H3           1.9210     0.8920    -0.4850 hc         1 35O       0.021450
     33 H4           1.9210    -0.8920    -0.4850 hc         1 35O       0.021450
     34 H5           2.9150    -0.4110     1.6450 hc         1 35O       0.021450
     35 H6           1.8490     0.9990     1.9150 hc         1 35O       0.021450
     36 H7           1.1190    -1.9670     1.9760 hc         1 35O       0.030950
     37 H8           0.7280    -0.7090     3.1790 hc         1 35O       0.030950
     38 H9          -1.0190     0.1420     1.9020 h1         1 35O       0.029700
     39 H10         -3.1870    -0.3090     2.4910 hn         1 35O       0.271800
     40 H11         -1.7020    -4.8340     0.0310 h4         1 35O       0.017100
     41 H12         -5.3030     0.0050     3.3800 hn         1 35O       0.307800
     42 H13         -6.8660    -2.4830     3.6190 h1         1 35O       0.083700
     43 H14         -7.2560    -1.3410     1.2900 hc         1 35O       0.017700
     44 H15         -8.6570    -1.8570     2.2390 hc         1 35O       0.017700
     45 H16         -8.1780    -0.1550     2.2250 hc         1 35O       0.017700
     46 H17         -9.2630    -1.6530     4.5780 hn         1 35O       0.172500
     47 H18        -11.2070    -0.3300     5.5780 ha         1 35O       0.121000
     48 H19        -12.0350     0.7050     7.6550 ha         1 35O       0.120500
     49 H20        -10.0870     2.0630    11.5940 h1         1 35O      -0.001967
     50 H21         -8.8450     2.2960    10.3560 h1         1 35O      -0.001967
     51 H22         -9.1170     0.6900    11.0440 h1         1 35O      -0.001967
     52 H23         -8.0620     0.7060     9.2430 ha         1 35O       0.120500
     53 H24         -7.2300    -0.3290     7.1670 ha         1 35O       0.121000
@<TRIPOS>BOND
     1     1     2 1   
     2     1     5 1   
     3     1    30 1   
     4     1    31 1   
     5     2     3 1   
     6     2    32 1   
     7     2    33 1   
     8     3     4 1   
     9     3    34 1   
    10     3    35 1   
    11     4     5 1   
    12     4    36 1   
    13     4    37 1   
    14     5     6 1   
    15     5    38 1   
    16     6     7 1   
    17     6     9 1   
    18     7     8 1   
    19     7    11 2   
    20     8    15 1   
    21     8    39 1   
    22     9    10 2   
    23    10    11 1   
    24    10    40 1   
    25    11    12 1   
    26    12    13 2   
    27    12    14 1   
    28    14    15 2   
    29    15    16 1   
    30    16    17 1   
    31    16    41 1   
    32    17    18 1   
    33    17    19 1   
    34    17    42 1   
    35    18    43 1   
    36    18    44 1   
    37    18    45 1   
    38    19    20 2   
    39    19    21 1   
    40    21    22 1   
    41    21    46 1   
    42    22    23 ar  
    43    22    29 ar  
    44    23    24 ar  
    45    23    47 1   
    46    24    25 ar  
    47    24    48 1   
    48    25    26 1   
    49    25    28 ar  
    50    26    27 1   
    51    27    49 1   
    52    27    50 1   
    53    27    51 1   
    54    28    29 ar  
    55    28    52 1   
    56    29    53 1   
@<TRIPOS>SUBSTRUCTURE
     1 35O         1 TEMP              0 ****  ****    0 ROOT
