@<TRIPOS>MOLECULE
molecule
   43    44     1     0     0
SMALL
bcc


@<TRIPOS>ATOM
      1 C24          0.0000     0.0000     0.0000 ca         1 35P      -0.190000
      2 C23          1.3820     0.0000     0.0000 ca         1 35P      -0.094000
      3 C22          2.0750     0.0000     1.1960 ca         1 35P      -0.176000
      4 C21          1.3880    -0.0010     2.3960 ca         1 35P      -0.094000
      5 C20          0.0070    -0.0000     2.4020 ca         1 35P      -0.190000
      6 C19         -0.6910     0.0000     1.2030 ca         1 35P       0.151100
      7 O1          -2.0500     0.0010     1.2070 os         1 35P      -0.293900
      8 C2          -2.6960     0.0010     2.4810 c3         1 35P       0.062400
      9 C3          -4.1910     0.0020     2.2880 c          1 35P       0.665100
     10 O18         -4.6570     0.0020     1.1690 o          1 35P      -0.592100
     11 N4          -5.0090     0.0010     3.3590 ns         1 35P      -0.561900
     12 C5          -6.4620     0.0020     3.1700 c3         1 35P       0.020700
     13 C6          -6.9430     1.4180     2.9830 c          1 35P       0.591900
     14 O17         -6.1540     2.3320     3.0060 o          1 35P      -0.541100
     15 C8          -7.1360    -0.6070     4.4000 c3         1 35P       0.280600
     16 N7          -8.6180    -0.6250     4.2480 n7         1 35P      -0.815200
     17 S11         -6.9500     0.4860     5.8700 ss         1 35P      -0.450200
     18 C10         -8.4850    -0.0960     6.6930 c3         1 35P       0.106100
     19 C12         -8.1570    -1.1170     7.7850 c3         1 35P      -0.076600
     20 C15         -9.2640     1.0840     7.2790 c3         1 35P      -0.076600
     21 C9          -9.2770    -0.7590     5.5500 c3         1 35P       0.043500
     22 C13         -9.4440    -2.2240     5.8610 c          1 35P       0.868600
     23 O14         -8.7800    -3.0460     5.2750 o          1 35P      -0.839800
     24 O16        -10.3300    -2.6170     6.7900 o          1 35P      -0.839800
     25 H1          -0.5430     0.0000    -0.9380 ha         1 35P       0.141000
     26 H2           1.9230     0.0000    -0.9390 ha         1 35P       0.127000
     27 H3           3.1590    -0.0000     1.1930 ha         1 35P       0.123000
     28 H4           1.9340    -0.0010     3.3320 ha         1 35P       0.127000
     29 H5          -0.5310    -0.0010     3.3420 ha         1 35P       0.141000
     30 H6          -2.4030     0.8850     3.0340 h1         1 35P       0.053200
     31 H7          -2.4040    -0.8840     3.0340 h1         1 35P       0.053200
     32 H8          -4.6250    -0.0300     4.2820 hn         1 35P       0.325500
     33 H9          -6.7130    -0.5830     2.2930 h1         1 35P       0.101700
     34 H10         -7.9910     1.6130     2.7930 h4         1 35P       0.020200
     35 H11         -6.7580    -1.6010     4.6080 h2         1 35P       0.090700
     36 H12         -8.8840    -1.3890     3.6590 hn         1 35P       0.380800
     37 H14         -7.6700    -1.9760     7.3410 hc         1 35P       0.045533
     38 H15         -7.4970    -0.6640     8.5150 hc         1 35P       0.045533
     39 H16         -9.0720    -1.4320     8.2720 hc         1 35P       0.045533
     40 H17         -9.6260     1.7120     6.4740 hc         1 35P       0.045533
     41 H18        -10.1040     0.7130     7.8540 hc         1 35P       0.045533
     42 H19         -8.6120     1.6620     7.9230 hc         1 35P       0.045533
     43 H20        -10.2550    -0.2970     5.4930 h1         1 35P       0.080700
@<TRIPOS>BOND
     1    13    14 2
     2    13    12 1
     3    12    11 1
     4    12    15 1
     5    11     9 1
     6    15    16 1
     7    15    17 1
     8     9     8 1
     9     9    10 2
    10     8     7 1
    11    16    21 1
    12     7     6 1
    13    21    22 1
    14    21    18 1
    15    23    22 1
    16    17    18 1
    17    22    24 1
    18     1     6 ar
    19     1     2 ar
    20     6     5 ar
    21    18    19 1
    22    18    20 1
    23     2     3 ar
    24     5     4 ar
    25     3     4 ar
    26     1    25 1
    27     2    26 1
    28     3    27 1
    29     4    28 1
    30     5    29 1
    31     8    30 1
    32     8    31 1
    33    11    32 1
    34    12    33 1
    35    13    34 1
    36    15    35 1
    37    16    36 1
    38    19    37 1
    39    19    38 1
    40    19    39 1
    41    20    40 1
    42    20    41 1
    43    20    42 1
    44    21    43 1
@<TRIPOS>SUBSTRUCTURE
     1 35P         1 TEMP              0 ****  ****    0 ROOT
