@<TRIPOS>MOLECULE
molecule
   72    76     1     0     0
SMALL
bcc


@<TRIPOS>ATOM
      1 FAD          0.0000     0.0000     0.0000 f          1 35Q      -0.210633
      2 CBN          1.3990     0.0000     0.0000 c3         1 35Q       0.680100
      3 FAE          1.8650     0.0000     1.3180 f          1 35Q      -0.210633
      4 FAF          1.8650    -1.1420    -0.6600 f          1 35Q      -0.210633
      5 CBI          1.9010     1.2300    -0.7110 cc         1 35Q      -0.053200
      6 CAO          1.0260     2.1360    -1.2250 cd         1 35Q      -0.206200
      7 CBJ          1.5180     3.2780    -1.8840 c          1 35Q       0.679700
      8 OAC          0.7380     4.0930    -2.3460 o          1 35Q      -0.622500
      9 NAZ          2.8420     3.4780    -2.0070 ns         1 35Q      -0.396100
     10 CAL          3.7270     2.5960    -1.5060 cc         1 35Q       0.043600
     11 CBG          3.2900     1.4640    -0.8480 cd         1 35Q      -0.236200
     12 CBB          4.2630     0.5010    -0.3020 c          1 35Q       0.682300
     13 OAB          3.8830    -0.5760     0.1190 o          1 35Q      -0.588100
     14 NAY          5.5740     0.8120    -0.2670 ns         1 35Q      -0.454100
     15 CBF          6.5040    -0.1210     0.2100 ca         1 35Q       0.080600
     16 CAN          6.0910    -1.1450     1.0450 ca         1 35Q      -0.137000
     17 CBH          7.8460    -0.0210    -0.1600 ca         1 35Q       0.037600
     18 NBM          8.2630     1.0090    -1.0080 nh         1 35Q      -0.633000
     19 CAV          8.7710     0.4730    -2.2770 c3         1 35Q       0.167300
     20 CAR          9.1420     1.6320    -3.2050 c3         1 35Q       0.162300
     21 NBK         10.1520     2.4760    -2.5510 n3         1 35Q      -0.732600
     22 CAA         10.5900     3.5590    -3.4420 c3         1 35Q       0.152100
     23 CAS          9.6430     3.0120    -1.2810 c3         1 35Q       0.162300
     24 CAW          9.2730     1.8530    -0.3530 c3         1 35Q       0.167300
     25 CAK          8.7680    -0.9460     0.3130 ca         1 35Q      -0.140000
     26 CAJ          8.3600    -1.9650     1.1490 ca         1 35Q      -0.135000
     27 CBE          7.0190    -2.0720     1.5180 cp         1 35Q      -0.014000
     28 CBD          6.5800    -3.1700     2.4120 cp         1 35Q      -0.041000
     29 CAM          7.5060    -4.0980     2.8860 ca         1 35Q      -0.119000
     30 CAI          5.2420    -3.2760     2.7860 ca         1 35Q      -0.109000
     31 CAG          4.8390    -4.3010     3.6190 ca         1 35Q      -0.129000
     32 CAH          5.7620    -5.2210     4.0820 ca         1 35Q      -0.103000
     33 CBC          7.0920    -5.1180     3.7180 ca         1 35Q      -0.084300
     34 CAX          8.0910    -6.1260     4.2280 c3         1 35Q       0.209100
     35 NBL          8.1750    -7.2510     3.2870 n3         1 35Q      -0.722600
     36 CAT          8.7450    -6.8220     2.0020 c3         1 35Q       0.120800
     37 H1          -0.0330     2.0450    -1.0180 ha         1 35Q       0.190000
     38 H2           4.7890     2.7780    -1.6150 h4         1 35Q       0.164000
     39 H4           5.8780     1.7290    -0.5320 hn         1 35Q       0.332500
     40 H5           5.0490    -1.2260     1.3300 ha         1 35Q       0.194000
     41 H6           9.6500    -0.1310    -2.0880 h1         1 35Q       0.049200
     42 H7           8.0040    -0.1320    -2.7460 h1         1 35Q       0.049200
     43 H8           9.5460     1.2390    -4.1300 h1         1 35Q       0.038700
     44 H9           8.2580     2.2230    -3.4130 h1         1 35Q       0.038700
     45 H11         11.3570     4.1450    -2.9480 h1         1 35Q       0.033367
     46 H12          9.7460     4.1960    -3.6790 h1         1 35Q       0.033367
     47 H13         10.9910     3.1360    -4.3550 h1         1 35Q       0.033367
     48 H14          8.7650     3.6160    -1.4710 h1         1 35Q       0.038700
     49 H15         10.4100     3.6170    -0.8120 h1         1 35Q       0.038700
     50 H16         10.1570     1.2620    -0.1450 h1         1 35Q       0.049200
     51 H17          8.8690     2.2470     0.5720 h1         1 35Q       0.049200
     52 H18          9.8090    -0.8660     0.0260 ha         1 35Q       0.138000
     53 H19          9.0810    -2.6840     1.5160 ha         1 35Q       0.134000
     54 H20          8.5480    -4.0180     2.6010 ha         1 35Q       0.130000
     55 H21          4.5190    -2.5560     2.4230 ha         1 35Q       0.147000
     56 H22          3.7990    -4.3850     3.9090 ha         1 35Q       0.134000
     57 H23          5.4420    -6.0240     4.7360 ha         1 35Q       0.134000
     58 H24          9.0640    -5.6560     4.3170 h1         1 35Q       0.040200
     59 H25          7.7750    -6.4890     5.1980 h1         1 35Q       0.040200
     60 H28          8.1390    -6.0260     1.5870 h1         1 35Q       0.043950
     61 H29          9.7580    -6.4710     2.1560 h1         1 35Q       0.043950
     62 C1           8.7590    -8.0090     1.0340 c3         1 35Q       0.139900
     63 O1           9.4950    -9.0860     1.6210 os         1 35Q      -0.426600
     64 C3           8.9670    -9.5290     2.8730 c3         1 35Q       0.139900
     65 C4           8.9550    -8.3580     3.8590 c3         1 35Q       0.120800
     66 H10          7.7430    -8.3290     0.8410 h1         1 35Q       0.053700
     67 H26          9.2330    -7.7120     0.1060 h1         1 35Q       0.053700
     68 H27          7.9560    -9.8910     2.7310 h1         1 35Q       0.053700
     69 H30          9.5900   -10.3250     3.2650 h1         1 35Q       0.053700
     70 H31          9.9710    -8.0280     4.0390 h1         1 35Q       0.043950
     71 H32          8.5020    -8.6750     4.7910 h1         1 35Q       0.043950
     72 H33          3.1760     4.2950    -2.4800 hn         1 35Q       0.346500
@<TRIPOS>BOND
     1    36    35 1
     2    34    35 1
     3    34    33 1
     4    32    33 ar
     5    32    31 ar
     6    33    29 ar
     7    31    30 ar
     8    29    28 ar
     9    30    28 ar
    10    28    27 1
    11    27    16 ar
    12    27    26 ar
    13    16    15 ar
    14    26    25 ar
    15    13    12 2
    16     3     2 1
    17    15    14 1
    18    15    17 ar
    19    12    11 1
    20    12    14 1
    21    25    17 ar
    22    10    11 2
    23    10     9 1
    24    11     5 1
    25     9     7 1
    26    17    18 1
    27     5     2 1
    28     5     6 2
    29     2     1 1
    30     2     4 1
    31     7     6 1
    32     7     8 2
    33    18    24 1
    34    18    19 1
    35    24    23 1
    36    19    20 1
    37    23    21 1
    38    20    21 1
    39    21    22 1
    40     6    37 1
    41    10    38 1
    42    14    39 1
    43    16    40 1
    44    19    41 1
    45    19    42 1
    46    20    43 1
    47    20    44 1
    48    22    45 1
    49    22    46 1
    50    22    47 1
    51    23    48 1
    52    23    49 1
    53    24    50 1
    54    24    51 1
    55    25    52 1
    56    26    53 1
    57    29    54 1
    58    30    55 1
    59    31    56 1
    60    32    57 1
    61    34    58 1
    62    34    59 1
    63    35    65 1
    64    36    60 1
    65    36    61 1
    66    36    62 1
    67    62    63 1
    68    63    64 1
    69    64    65 1
    70    62    66 1
    71    62    67 1
    72    64    68 1
    73    64    69 1
    74    65    70 1
    75    65    71 1
    76     9    72 1
@<TRIPOS>SUBSTRUCTURE
     1 35Q         1 TEMP              0 ****  ****    0 ROOT
