@<TRIPOS>MOLECULE
35R
   51    55     1     0     0
SMALL
bcc


@<TRIPOS>ATOM
      1 O1           0.0000     0.0000     0.0000 o          1 35R      -0.722100
      2 C2           1.2170     0.0000     0.0000 c          1 35R       0.561100
      3 N3           1.8900     0.0000     1.1670 ns         1 35R      -0.155900
      4 C4           1.1570    -0.0000     2.4370 cx         1 35R      -0.028300
      5 C5           1.6550     0.9370     3.5400 cx         1 35R      -0.098900
      6 C6           1.8690    -0.5740     3.6630 cx         1 35R      -0.098900
      7 N7           1.8900    -0.0060    -1.1660 ns         1 35R      -0.002100
      8 C8           1.1880    -0.0120    -2.3840 cc         1 35R      -0.244700
      9 C9          -0.1600    -0.0110    -2.5280 cd         1 35R      -0.290300
     10 N10         -0.4360    -0.0190    -3.8600 na         1 35R       0.465400
     11 N12          0.7790    -0.0230    -4.5570 nd         1 35R      -0.675800
     12 C13          1.7600    -0.0130    -3.6770 cc         1 35R       0.331000
     13 C14          3.2050    -0.0130    -3.9870 cc         1 35R       0.198800
     14 N15          3.7400    -0.0190    -5.2470 na         1 35R       0.296700
     15 C16          5.1150    -0.0110    -5.1070 ca         1 35R      -0.279200
     16 C17          6.1750    -0.0120    -6.0040 ca         1 35R      -0.082000
     17 C18          7.4700    -0.0030    -5.5310 ca         1 35R      -0.071000
     18 C19          7.7210     0.0080    -4.1670 ca         1 35R      -0.102300
     19 C20          9.1430     0.0180    -3.6700 c3         1 35R       0.215100
     20 N21          9.6000     1.4050    -3.5170 n3         1 35R      -0.534600
     21 C23         11.0470     1.4600    -3.2650 c3         1 35R       0.103300
     22 C24         11.4890     2.9220    -3.1720 c3         1 35R       0.214900
     23 O25         10.7360     3.5800    -2.1490 os         1 35R      -0.413600
     24 C26          9.3220     3.5460    -2.3640 c3         1 35R       0.214900
     25 C27          8.8580     2.0900    -2.4480 c3         1 35R       0.103300
     26 C28          6.6910     0.0100    -3.2680 ca         1 35R      -0.050000
     27 C29          5.3680    -0.0000    -3.7240 ca         1 35R       0.070400
     28 N30          4.1680    -0.0020    -3.0960 nd         1 35R      -0.551100
     29 H1           2.8910    -0.0180     1.1670 hn         1 35R       0.166500
     30 H2           0.0850    -0.1540     2.4220 h1         1 35R       0.097700
     31 H3           0.8870     1.3540     4.1800 hc         1 35R       0.047950
     32 H4           2.5380     1.5160     3.2980 hc         1 35R       0.047950
     33 H5           1.2330    -1.0790     4.3790 hc         1 35R       0.047950
     34 H6           2.8830    -0.9170     3.4970 hc         1 35R       0.047950
     35 H7           2.8910    -0.0080    -1.1660 hn         1 35R       0.192500
     36 H8          -0.8870    -0.0060    -1.7250 h4         1 35R       0.210000
     37 H9          -1.3480    -0.0220    -4.2700 hn         1 35R       0.150700
     38 H10          3.2350     0.1080    -6.1010 hn         1 35R       0.139700
     39 H11          5.9850    -0.0210    -7.0700 ha         1 35R       0.102000
     40 H12          8.2980    -0.0060    -6.2300 ha         1 35R       0.110000
     41 H13          9.1950    -0.4870    -2.7120 h1         1 35R       0.012700
     42 H14          9.7780    -0.4950    -4.3820 h1         1 35R       0.012700
     43 H16         11.5730     0.9750    -4.0790 h1         1 35R       0.019950
     44 H17         11.2700     0.9560    -2.3320 h1         1 35R       0.019950
     45 H18         11.3120     3.4130    -4.1220 h1         1 35R       0.012450
     46 H19         12.5430     2.9660    -2.9280 h1         1 35R       0.012450
     47 H20          8.8200     4.0370    -1.5390 h1         1 35R       0.012450
     48 H21          9.0860     4.0540    -3.2910 h1         1 35R       0.012450
     49 H22          7.7980     2.0610    -2.6690 h1         1 35R       0.019950
     50 H23          9.0500     1.5950    -1.5030 h1         1 35R       0.019950
     51 H24          6.8990     0.0180    -2.2050 ha         1 35R       0.111000
@<TRIPOS>BOND
     1     1     2 2   
     2     2     3 1   
     3     2     7 1   
     4     3     4 1   
     5     3    29 1   
     6     4     5 1   
     7     4     6 1   
     8     4    30 1   
     9     5     6 1   
    10     5    31 1   
    11     5    32 1   
    12     6    33 1   
    13     6    34 1   
    14     7     8 1   
    15     7    35 1   
    16     8     9 2   
    17     8    12 1   
    18     9    10 1   
    19     9    36 1   
    20    10    11 1   
    21    10    37 1   
    22    11    12 2   
    23    12    13 1   
    24    13    14 1   
    25    13    28 2   
    26    14    15 1   
    27    14    38 1   
    28    15    16 ar  
    29    15    27 ar  
    30    16    17 ar  
    31    16    39 1   
    32    17    18 ar  
    33    17    40 1   
    34    18    19 1   
    35    18    26 ar  
    36    19    20 1   
    37    19    41 1   
    38    19    42 1   
    39    20    21 1   
    40    20    25 1   
    41    21    22 1   
    42    21    43 1   
    43    21    44 1   
    44    22    23 1   
    45    22    45 1   
    46    22    46 1   
    47    23    24 1   
    48    24    25 1   
    49    24    47 1   
    50    24    48 1   
    51    25    49 1   
    52    25    50 1   
    53    26    27 ar  
    54    26    51 1   
    55    27    28 1   
@<TRIPOS>SUBSTRUCTURE
     1 35R         1 TEMP              0 ****  ****    0 ROOT
