@<TRIPOS>MOLECULE
35S
   69    75     1     0     0
SMALL
bcc


@<TRIPOS>ATOM
      1 Cl1          0.0000     0.0000     0.0000 cl         1 35S       0.022000
      2 C9           1.7370     0.0000     0.0000 ca         1 35S      -0.109000
      3 C24          2.4290     0.0000     1.1980 ca         1 35S      -0.105000
      4 C25          3.8110    -0.0000     1.1980 ca         1 35S      -0.075000
      5 C27          2.4280    -0.0070    -1.1980 ca         1 35S      -0.105000
      6 C28          3.8110    -0.0070    -1.1970 ca         1 35S      -0.075000
      7 C6           4.5020    -0.0010    -0.0000 ca         1 35S      -0.094000
      8 C7           6.0090    -0.0000     0.0000 c3         1 35S       0.015000
      9 N2           6.4910     1.1900     0.6890 n          1 35S      -0.009000
     10 C8           5.7900     2.4540     0.4470 c3         1 35S       0.031000
     11 C11          7.5290     1.2010     1.5260 c2         1 35S       0.224000
     12 O1           7.8650     2.2610     2.0100 o          1 35S      -0.315000
     13 C12          8.3050    -0.0290     1.9010 c3         1 35S      -0.047000
     14 C13          7.8810    -0.4920     3.2960 c3         1 35S      -0.164000
     15 C14          8.1600     0.6030     4.2940 c2         1 35S       0.380000
     16 O2           7.8660     0.4200     5.5910 o          1 35S      -0.611500
     17 O3           8.6470     1.6460     3.9270 o          1 35S      -0.611500
     18 C15          8.0310    -1.1460     0.8900 c3         1 35S      -0.113000
     19 C16          6.5130    -1.2640     0.6980 c3         1 35S      -0.065000
     20 C17          6.2040    -2.4690    -0.1520 ca         1 35S      -0.045000
     21 C18          6.7290    -2.5680    -1.4280 ca         1 35S      -0.102000
     22 C19          6.4460    -3.6740    -2.2080 ca         1 35S      -0.094000
     23 C20          5.6380    -4.6810    -1.7130 ca         1 35S      -0.115000
     24 C21          5.1140    -4.5820    -0.4370 ca         1 35S      -0.106000
     25 Cl2          4.1000    -5.8470     0.1850 cl         1 35S       0.033000
     26 C22          5.4020    -3.4780     0.3460 ca         1 35S      -0.089000
     27 C10          5.7650     3.2770     1.7360 c3         1 35S      -0.305000
     28 C23          5.5340     2.3490     2.9300 c3         1 35S      -0.120000
     29 C26          9.8000     0.2950     1.9070 c3         1 35S      -0.136000
     30 C29          6.9280     3.5960    -2.8640 cu         1 35S      -0.348000
     31 C30          7.7770     4.6480    -2.5700 DU         1 35S       0.138000
     32 C31          7.9930     5.0030    -1.2810 c2         1 35S      -0.287000
     33 C4           7.3770     4.3270    -0.2820 c2         1 35S       0.034000
     34 C5           6.5070     3.2270    -0.6300 c2         1 35S      -0.249000
     35 N1           6.3140     2.9230    -1.8660 n2         1 35S       0.096000
     36 C1           9.3180     2.5020    -3.7890 cx         1 35S      -0.147000
     37 C2           9.1540     2.0470    -2.3440 cx         1 35S      -0.147000
     38 C3           8.1350     3.0060    -2.9620 DU         1 35S       0.009000
     39 H1           1.8870    -0.0290     2.1360 ha         1 35S       0.112500
     40 H2           4.3530    -0.0000     2.1360 ha         1 35S       0.127000
     41 H3           1.8860    -0.0120    -2.1360 ha         1 35S       0.112500
     42 H4           4.3530     0.0100    -2.1350 ha         1 35S       0.127000
     43 H5           6.3700     0.0090    -1.0210 h1         1 35S       0.074000
     44 H6           4.7740     2.2490     0.1300 h1         1 35S       0.086000
     45 H7           6.8010    -0.5560     3.3430 hc         1 35S       0.054000
     46 H8           8.3100    -1.4660     3.4990 hc         1 35S       0.054000
     47 H10          8.4430    -0.8570    -0.0690 hc         1 35S       0.058000
     48 H11          8.5220    -2.0510     1.2290 hc         1 35S       0.058000
     49 H12          6.0330    -1.3620     1.6640 hc         1 35S       0.103000
     50 H13          7.3620    -1.7790    -1.8160 ha         1 35S       0.114000
     51 H14          6.8690    -3.7580    -3.2020 ha         1 35S       0.100000
     52 H15          5.4170    -5.5470    -2.3240 ha         1 35S       0.107000
     53 H16          4.9960    -3.4030     1.3480 ha         1 35S       0.124000
     54 H17          6.7760     3.4000     2.1060 hc         1 35S       0.131500
     55 H18          5.3340     4.2500     1.5350 hc         1 35S       0.131500
     56 H19          6.0590     2.7360     3.7950 hc         1 35S       0.056333
     57 H20          4.4740     2.2960     3.1460 hc         1 35S       0.056333
     58 H21          5.9050     1.3590     2.6950 hc         1 35S       0.056333
     59 H22         10.1510     0.3980     0.8880 hc         1 35S       0.059667
     60 H23          9.9660     1.2230     2.4420 hc         1 35S       0.059667
     61 H24         10.3410    -0.5050     2.3960 hc         1 35S       0.059667
     62 H27          6.5280     4.7680     0.2270 ha         1 35S       0.172000
     63 H28         10.1070     3.2240    -3.9640 hc         1 35S       0.090500
     64 H29          9.0800     1.7610    -4.5420 hc         1 35S       0.090500
     65 H30          9.8410     2.4900    -1.6340 hc         1 35S       0.090500
     66 H31          8.8150     1.0270    -2.2120 hc         1 35S       0.090500
     67 H32          8.6890     3.8800    -2.6430 DU         1 35S       0.041000
     68 H25          8.1550     5.2730    -3.3700 ha         1 35S       0.088000
     69 H26          8.6180     5.8580    -1.0520 ha         1 35S       0.120000
@<TRIPOS>BOND
     1     1     2 1   
     2     2     3 1   
     3     2     5 1   
     4     3     4 1   
     5     3    39 1   
     6     4     7 1   
     7     4    40 1   
     8     5     6 1   
     9     5    41 1   
    10     6     7 1   
    11     6    42 1   
    12     7     8 1   
    13     8     9 1   
    14     8    19 1   
    15     8    43 1   
    16     9    10 1   
    17     9    11 1   
    18    10    27 1   
    19    10    34 1   
    20    10    44 1   
    21    11    12 1   
    22    11    13 1   
    23    13    14 1   
    24    13    18 1   
    25    13    29 1   
    26    14    15 1   
    27    14    45 1   
    28    14    46 1   
    29    15    16 1   
    30    15    17 1   
    31    18    19 1   
    32    18    47 1   
    33    18    48 1   
    34    19    20 1   
    35    19    49 1   
    36    20    21 1   
    37    20    26 1   
    38    21    22 1   
    39    21    50 1   
    40    22    23 1   
    41    22    51 1   
    42    23    24 1   
    43    23    52 1   
    44    24    25 1   
    45    24    26 1   
    46    26    53 1   
    47    27    28 1   
    48    27    54 1   
    49    27    55 1   
    50    28    56 1   
    51    28    57 1   
    52    28    58 1   
    53    29    59 1   
    54    29    60 1   
    55    29    61 1   
    56    30    31 1   
    57    30    35 1   
    58    30    38 1   
    59    31    32 1   
    60    31    38 1   
    61    31    67 1   
    62    31    68 1   
    63    32    33 1   
    64    32    69 1   
    65    33    34 1   
    66    33    62 1   
    67    34    35 1   
    68    36    37 1   
    69    36    38 1   
    70    36    63 1   
    71    36    64 1   
    72    37    38 1   
    73    37    65 1   
    74    37    66 1   
    75    38    67 1   
@<TRIPOS>SUBSTRUCTURE
     1 35S         1 TEMP              0 ****  ****    0 ROOT
