@<TRIPOS>MOLECULE
molecule
   72    76     1     0     0
SMALL
bcc


@<TRIPOS>ATOM
      1 C17          0.0000     0.0000     0.0000 ca         1 35T      -0.110000
      2 C16          1.3840     0.0000     0.0000 ca         1 35T       0.028400
      3 Cl2          2.2520     0.0000    -1.5030 cl         1 35T      -0.125400
      4 C15          2.0750     0.0000     1.1990 ca         1 35T      -0.135000
      5 C14          1.3830     0.0000     2.3950 ca         1 35T      -0.126000
      6 C13          0.0010     0.0000     2.3950 ca         1 35T      -0.126000
      7 C6          -0.6910     0.0000     1.1970 ca         1 35T      -0.055300
      8 C19         -2.1980     0.0010     1.1980 c3         1 35T      -0.033400
      9 C22         -2.7120    -1.2500     1.9190 c3         1 35T      -0.078400
     10 C4          -4.2310    -1.3170     1.7460 c3         1 35T      -0.095000
     11 C21         -4.5620    -1.6760     0.2960 c3         1 35T      -0.177400
     12 C23         -6.0580    -1.7430     0.1230 c          1 35T       0.875600
     13 O3          -6.7850    -1.5260     1.0640 o          1 35T      -0.834300
     14 O2          -6.5830    -2.0430    -1.0750 o          1 35T      -0.834300
     15 C24         -4.8020    -2.3900     2.6770 c3         1 35T      -0.071100
     16 C5          -4.8440     0.0110     2.0840 c          1 35T       0.705500
     17 O1          -6.0340     0.0520     2.3160 o          1 35T      -0.573500
     18 N1          -4.1500     1.1480     2.1440 n          1 35T      -0.503800
     19 C18         -4.8800     2.3840     2.4370 c3         1 35T       0.175700
     20 C20         -5.5620     2.2620     3.8000 c3         1 35T      -0.234600
     21 C29         -2.7100     1.2380     1.9360 c3         1 35T       0.174000
     22 C7          -2.4010     2.4680     1.1210 ca         1 35T      -0.111300
     23 C8          -1.3090     3.2530     1.4430 ca         1 35T      -0.098500
     24 C9          -1.0250     4.3810     0.6960 ca         1 35T      -0.131000
     25 C10         -1.8320     4.7240    -0.3730 ca         1 35T       0.026400
     26 Cl1         -1.4750     6.1400    -1.3110 cl         1 35T      -0.131400
     27 C11         -2.9250     3.9380    -0.6940 ca         1 35T      -0.131000
     28 C12         -3.2050     2.8070     0.0490 ca         1 35T      -0.098500
     29 S1          -4.3010     2.1320     5.0980 s6         1 35T       1.339900
     30 O4          -3.6120     0.8920     5.0000 o          1 35T      -0.640300
     31 O5          -3.5910     3.3560     5.2290 o          1 35T      -0.640300
     32 N2          -5.1660     2.0070     6.5040 n3         1 35T      -0.831500
     33 C25         -5.6240     0.7530     7.1210 c3         1 35T       0.242300
     34 C26         -6.4070     1.1300     8.3960 c3         1 35T      -0.095900
     35 C27         -6.8310     2.5970     8.1230 c3         1 35T      -0.095900
     36 C28         -5.6000     3.1350     7.3490 c3         1 35T       0.242300
     37 C1          -6.8120     3.8690     1.4840 cx         1 35T      -0.152900
     38 C2          -5.9380     2.6190     1.3570 cx         1 35T      -0.120700
     39 C3          -5.7270     3.8010     0.4080 cx         1 35T      -0.152900
     40 H1          -0.5410    -0.0460    -0.9370 ha         1 35T       0.152000
     41 H2           3.1580    -0.0350     1.2000 ha         1 35T       0.133000
     42 H3           1.9240    -0.0060     3.3330 ha         1 35T       0.129000
     43 H4          -0.5400    -0.0420     3.3320 ha         1 35T       0.149000
     44 H5          -2.5670     0.0080     0.1790 hc         1 35T       0.084700
     45 H6          -2.2570    -2.1320     1.4860 hc         1 35T       0.050700
     46 H7          -2.4690    -1.1870     2.9730 hc         1 35T       0.050700
     47 H8          -4.1560    -0.9190    -0.3650 hc         1 35T       0.035700
     48 H9          -4.1280    -2.6380     0.0530 hc         1 35T       0.035700
     49 H11         -5.8420    -2.1720     2.8850 hc         1 35T       0.045033
     50 H12         -4.2420    -2.3970     3.6050 hc         1 35T       0.045033
     51 H13         -4.7240    -3.3600     2.2010 hc         1 35T       0.045033
     52 H14         -4.1880     3.2170     2.4520 h1         1 35T       0.062700
     53 H15         -6.1730     3.1390     3.9780 h1         1 35T       0.124200
     54 H16         -6.1880     1.3780     3.8140 h1         1 35T       0.124200
     55 H17         -2.2160     1.3080     2.8970 h1         1 35T       0.058700
     56 H18         -0.6770     2.9850     2.2800 ha         1 35T       0.156500
     57 H19         -0.1690     4.9960     0.9480 ha         1 35T       0.141000
     58 H20         -3.5560     4.2050    -1.5320 ha         1 35T       0.141000
     59 H21         -4.0600     2.1920    -0.2020 ha         1 35T       0.156500
     60 H22         -4.7700     0.1390     7.3820 h1         1 35T       0.047950
     61 H23         -6.2720     0.2210     6.4350 h1         1 35T       0.047950
     62 H24         -5.7670     1.0730     9.2680 hc         1 35T       0.049450
     63 H25         -7.2780     0.4960     8.5100 hc         1 35T       0.049450
     64 H26         -6.9690     3.1380     9.0520 hc         1 35T       0.049450
     65 H27         -7.7210     2.6340     7.5070 hc         1 35T       0.049450
     66 H28         -4.8130     3.4110     8.0400 h1         1 35T       0.047950
     67 H29         -5.8830     3.9790     6.7320 h1         1 35T       0.047950
     68 H30         -7.8300     3.7660     1.1290 hc         1 35T       0.071450
     69 H31         -6.5910     4.5090     2.3300 hc         1 35T       0.071450
     70 H32         -6.4330     1.7640     0.9130 hc         1 35T       0.142700
     71 H33         -6.0830     3.6560    -0.6050 hc         1 35T       0.071450
     72 H34         -4.8440     4.3990     0.5950 hc         1 35T       0.071450
@<TRIPOS>BOND
     1     1     2 ar
     2     1     7 ar
     3     2     3 1
     4     2     4 ar
     5     4     5 ar
     6     5     6 ar
     7     6     7 ar
     8     7     8 1
     9     8     9 1
    10     8    21 1
    11     9    10 1
    12    10    11 1
    13    10    15 1
    14    10    16 1
    15    11    12 1
    16    12    13 1
    17    12    14 1
    18    16    17 2
    19    16    18 1
    20    18    19 1
    21    18    21 1
    22    19    20 1
    23    19    38 1
    24    20    29 1
    25    21    22 1
    26    22    23 ar
    27    22    28 ar
    28    23    24 ar
    29    24    25 ar
    30    25    26 1
    31    25    27 ar
    32    27    28 ar
    33    29    30 2
    34    29    31 2
    35    29    32 1
    36    32    33 1
    37    32    36 1
    38    33    34 1
    39    34    35 1
    40    35    36 1
    41    37    38 1
    42    37    39 1
    43    38    39 1
    44     1    40 1
    45     4    41 1
    46     5    42 1
    47     6    43 1
    48     8    44 1
    49     9    45 1
    50     9    46 1
    51    11    47 1
    52    11    48 1
    53    15    49 1
    54    15    50 1
    55    15    51 1
    56    19    52 1
    57    20    53 1
    58    20    54 1
    59    21    55 1
    60    23    56 1
    61    24    57 1
    62    27    58 1
    63    28    59 1
    64    33    60 1
    65    33    61 1
    66    34    62 1
    67    34    63 1
    68    35    64 1
    69    35    65 1
    70    36    66 1
    71    36    67 1
    72    37    68 1
    73    37    69 1
    74    38    70 1
    75    39    71 1
    76    39    72 1
@<TRIPOS>SUBSTRUCTURE
     1 35T         1 TEMP              0 ****  ****    0 ROOT
