@<TRIPOS>MOLECULE
35V
   51    52     1     0     0
SMALL
bcc


@<TRIPOS>ATOM
      1 CAJ          0.0000     0.0000     0.0000 ca         1 35V      -0.129000
      2 CAU          1.3850     0.0000     0.0000 ca         1 35V       0.095100
      3 OAC          2.0670     0.0010    -1.1770 oh         1 35V      -0.488100
      4 CAT          2.0780     0.0000     1.2080 ca         1 35V       0.104100
      5 OAB          3.4380     0.0020     1.2130 oh         1 35V      -0.490100
      6 CAF          1.3790    -0.0000     2.4030 ca         1 35V      -0.137000
      7 CAH         -0.0040    -0.0020     2.3960 ca         1 35V      -0.066000
      8 CAW         -0.6920    -0.0020     1.1970 ca         1 35V      -0.128300
      9 CAZ         -2.1990    -0.0030     1.1940 c3         1 35V       0.253400
     10 OAD         -2.6760    -0.7760     2.2970 oh         1 35V      -0.569800
     11 CAP         -2.7100     1.4330     1.3210 c3         1 35V       0.132800
     12 NAQ         -4.1790     1.4330     1.3190 n7         1 35V      -0.574200
     13 CAM         -4.7060     2.7980     1.4380 c3         1 35V       0.144800
     14 CAO         -6.2360     2.7560     1.4320 c3         1 35V       0.033900
     15 CAV         -6.7770     4.1570     1.5550 ca         1 35V      -0.087300
     16 CAK         -7.0230     4.9050     0.4170 ca         1 35V      -0.175000
     17 CAY         -7.5210     6.1920     0.5280 ca         1 35V       0.120100
     18 OAR         -7.7640     6.9280    -0.5900 os         1 35V      -0.294900
     19 CAA         -7.4830     6.3090    -1.8470 c3         1 35V       0.241700
     20 CAG         -7.0310     4.6920     2.8040 ca         1 35V      -0.092000
     21 CAI         -7.5340     5.9750     2.9220 ca         1 35V      -0.173000
     22 CAX         -7.7720     6.7330     1.7860 ca         1 35V       0.116100
     23 OAS         -8.2660     7.9950     1.9000 os         1 35V      -0.295900
     24 CAN         -8.5160     8.4760     3.2220 c3         1 35V       0.219400
     25 CAL         -9.0640     9.9030     3.1490 c3         1 35V       0.093700
     26 SAE         -9.3820    10.5140     4.8280 sh         1 35V      -0.400900
     27 H1          -0.5410     0.0000    -0.9380 ha         1 35V       0.113000
     28 H2           1.9880     0.8480    -1.5840 ho         1 35V       0.403000
     29 H3           3.7530    -0.8550     1.4480 ho         1 35V       0.405000
     30 H4           1.9160    -0.0000     3.3440 ha         1 35V       0.115000
     31 H5          -0.5490    -0.0030     3.3320 ha         1 35V       0.124000
     32 H6          -2.5590    -0.4340     0.2680 h1         1 35V      -0.001300
     33 H7          -2.9630    -1.6200     1.9890 ho         1 35V       0.389000
     34 H8          -2.3480     2.0210     0.4860 h1         1 35V       0.017700
     35 H9          -2.3510     1.8640     2.2480 h1         1 35V       0.017700
     36 H10         -4.5110     1.0200     0.4700 hn         1 35V       0.244800
     37 H12         -4.3610     3.2390     2.3660 h1         1 35V       0.009200
     38 H13         -4.3580     3.3940     0.6040 h1         1 35V       0.009200
     39 H14         -6.5820     2.3160     0.5050 hc         1 35V       0.022200
     40 H15         -6.5850     2.1600     2.2670 hc         1 35V       0.022200
     41 H16         -6.8520     4.4730    -0.5620 ha         1 35V       0.124000
     42 H17         -8.0880     5.4170    -1.9530 h1         1 35V      -0.003633
     43 H18         -6.4340     6.0410    -1.8910 h1         1 35V      -0.003633
     44 H19         -7.7130     6.9990    -2.6490 h1         1 35V      -0.003633
     45 H20         -6.8460     4.1010     3.6930 ha         1 35V       0.111000
     46 H21         -7.7310     6.3920     3.9020 ha         1 35V       0.124000
     47 H22         -7.5920     8.4730     3.7880 h1         1 35V       0.015700
     48 H23         -9.2400     7.8350     3.7080 h1         1 35V       0.015700
     49 H24         -8.3400    10.5440     2.6620 h1         1 35V       0.040700
     50 H25         -9.9880     9.9060     2.5830 h1         1 35V       0.040700
     51 H26         -9.8600    11.7510     4.7650 hs         1 35V       0.193800
@<TRIPOS>BOND
     1     1     2 ar  
     2     1     8 ar  
     3     1    27 1   
     4     2     3 1   
     5     2     4 ar  
     6     3    28 1   
     7     4     5 1   
     8     4     6 ar  
     9     5    29 1   
    10     6     7 ar  
    11     6    30 1   
    12     7     8 ar  
    13     7    31 1   
    14     8     9 1   
    15     9    10 1   
    16     9    11 1   
    17     9    32 1   
    18    10    33 1   
    19    11    12 1   
    20    11    34 1   
    21    11    35 1   
    22    12    13 1   
    23    12    36 1   
    24    13    14 1   
    25    13    37 1   
    26    13    38 1   
    27    14    15 1   
    28    14    39 1   
    29    14    40 1   
    30    15    16 ar  
    31    15    20 ar  
    32    16    17 ar  
    33    16    41 1   
    34    17    18 1   
    35    17    22 ar  
    36    18    19 1   
    37    19    42 1   
    38    19    43 1   
    39    19    44 1   
    40    20    21 ar  
    41    20    45 1   
    42    21    22 ar  
    43    21    46 1   
    44    22    23 1   
    45    23    24 1   
    46    24    25 1   
    47    24    47 1   
    48    24    48 1   
    49    25    26 1   
    50    25    49 1   
    51    25    50 1   
    52    26    51 1   
@<TRIPOS>SUBSTRUCTURE
     1 35V         1 TEMP              0 ****  ****    0 ROOT
