@<TRIPOS>MOLECULE
35W
   43    47     1     0     0
SMALL
bcc


@<TRIPOS>ATOM
      1 C4          0.1530    0.0400   -0.1200 ca        1 35W     -0.122300
      2 C5          1.5220   -0.1040    0.1240 ca        1 35W     -0.109000
      3 C6          2.0380    0.1630    1.3920 ca        1 35W     -0.132500
      4 C7         -0.4040   -0.2920   -1.4730 c3        1 35W      0.103600
      5 C10        -1.2540    2.7220   -3.3610 cc        1 35W     -0.198100
      6 N12        -2.3100    1.1920   -2.0000 nd        1 35W     -0.518800
      7 C13        -1.0280    3.8410   -4.2010 cc        1 35W     -0.121000
      8 C17        -1.2660    5.8020   -5.4570 ca        1 35W      0.317500
      9 C20        -3.8680    6.1470   -4.8130 cp        1 35W      0.311500
     10 C21        -3.1450    7.0510   -5.6710 ca        1 35W      0.314900
     11 C24        -5.8240    6.2430   -3.2560 ca        1 35W     -0.225800
     12 C28        -6.1170    6.9270   -5.5480 ca        1 35W     -0.225800
     13 C1          1.1910    0.5820    2.4170 ca        1 35W     -0.119000
     14 C2         -0.1750    0.7310    2.1750 ca        1 35W     -0.132500
     15 C3         -0.6950    0.4600    0.9100 ca        1 35W     -0.109000
     16 N8         -1.0230    0.8270   -2.1620 na        1 35W      0.087400
     17 C9         -0.3270    1.7360   -2.9650 cd        1 35W     -0.135300
     18 C11        -2.4950    2.3230   -2.7190 cc        1 35W      0.333200
     19 C14         0.1750    4.1740   -4.8360 cd        1 35W     -0.105100
     20 N15         0.0440    5.3420   -5.5890 na        1 35W     -0.274100
     21 C18        -1.9900    4.8690   -4.5750 ca        1 35W      0.314800
     22 N19        -3.2880    5.0570   -4.2630 nb        1 35W     -0.578000
     23 N22        -1.8600    6.9050   -6.0040 nb        1 35W     -0.636000
     24 C23        -5.2810    6.4380   -4.5330 cp        1 35W     -0.096500
     25 C25        -7.1800    6.5560   -3.0500 ca        1 35W      0.390200
     26 N26        -7.9920    7.0330   -4.0120 nb        1 35W     -0.660000
     27 C27        -7.4570    7.2080   -5.2360 ca        1 35W      0.390200
     28 H1          2.1960   -0.4330   -0.6810 ha        1 35W      0.140000
     29 H2          3.1150    0.0450    1.5810 ha        1 35W      0.134500
     30 H3         -1.1750   -1.1090   -1.3540 h1        1 35W      0.072700
     31 H4          0.4180   -0.6730   -2.1440 h1        1 35W      0.072700
     32 H5         -3.6540    7.9390   -6.0890 h4        1 35W      0.036100
     33 H7         -5.7420    7.0780   -6.5690 ha        1 35W      0.152000
     34 H8          1.6000    0.7950    3.4160 ha        1 35W      0.134000
     35 H9         -0.8440    1.0630    2.9820 ha        1 35W      0.134500
     36 H10        -1.7740    0.5770    0.7190 ha        1 35W      0.140000
     37 H11         0.7300    1.6170   -3.1980 h4        1 35W      0.171000
     38 H12        -3.4640    2.8230   -2.7810 h4        1 35W      0.062100
     39 H13         1.1310    3.6470   -4.8010 h4        1 35W      0.172000
     40 H14         0.7520    5.7750   -6.1220 hn        1 35W      0.314700
     41 H15        -7.6430    6.4160   -2.0560 h4        1 35W      0.023600
     42 H16        -8.1450    7.5950   -6.0100 h4        1 35W      0.023600
     43 H6         -5.2120    5.8520   -2.4320 ha        1 35W      0.152000
@<TRIPOS>BOND
     1    1    2 ar  
     2    1    4 1   
     3    1   15 ar  
     4    2    3 ar  
     5    2   28 1   
     6    3   13 ar  
     7    3   29 1   
     8    4   16 1   
     9    4   30 1   
    10    4   31 1   
    11    5    7 1   
    12    5   17 2   
    13    5   18 1   
    14    6   16 1   
    15    6   18 2   
    16    7   19 2   
    17    7   21 1   
    18    8   20 1   
    19    8   21 ar  
    20    8   23 ar  
    21    9   10 ar  
    22    9   22 ar  
    23    9   24 1   
    24   10   23 ar  
    25   10   32 1   
    26   11   24 ar  
    27   11   25 ar  
    28   11   43 1   
    29   12   24 ar  
    30   12   27 ar  
    31   12   33 1   
    32   13   14 ar  
    33   13   34 1   
    34   14   15 ar  
    35   14   35 1   
    36   15   36 1   
    37   16   17 1   
    38   17   37 1   
    39   18   38 1   
    40   19   20 1   
    41   19   39 1   
    42   20   40 1   
    43   21   22 ar  
    44   25   26 ar  
    45   25   41 1   
    46   26   27 ar  
    47   27   42 1   
@<TRIPOS>SUBSTRUCTURE
     1 35W         1 TEMP              0 ****  ****    0 ROOT
