@<TRIPOS>MOLECULE
molecule
   43    47     1     0     0
SMALL
bcc


@<TRIPOS>ATOM
      1 C4           0.0000     0.0000     0.0000 ca         1 35W      -0.115300
      2 C5           1.3820     0.0000     0.0000 ca         1 35W      -0.099500
      3 C6           2.0730     0.0000     1.1980 ca         1 35W      -0.131500
      4 C7          -0.7530    -0.0060    -1.3050 c3         1 35W       0.127600
      5 C10         -1.0660     3.2100    -2.9210 cc         1 35W      -0.244100
      6 N12         -1.6410     2.3640    -0.9750 nd         1 35W      -0.508800
      7 C13         -0.8890     4.1870    -4.0280 cd         1 35W      -0.152000
      8 C17         -1.2860     5.7940    -5.6240 ca         1 35W       0.348500
      9 C20         -3.9080     6.1000    -5.0930 cp         1 35W       0.323500
     10 C21         -3.2700     6.8430    -6.0900 ca         1 35W       0.338900
     11 C24         -5.9890     5.6470    -3.7710 ca         1 35W      -0.234800
     12 C28         -6.1190     7.1470    -5.6380 ca         1 35W      -0.234800
     13 C1           1.3810     0.0000     2.3940 ca         1 35W      -0.116000
     14 C2          -0.0010     0.0010     2.3940 ca         1 35W      -0.131500
     15 C3          -0.6920     0.0010     1.1970 ca         1 35W      -0.099500
     16 N8          -1.0040     1.3730    -1.7310 na         1 35W       0.068400
     17 C9          -0.6570     1.9100    -2.9210 cd         1 35W      -0.109300
     18 C11         -1.6820     3.4640    -1.6810 cc         1 35W       0.359200
     19 C14          0.2600     4.4530    -4.6930 cc         1 35W      -0.085100
     20 N15          0.0330     5.4080    -5.6450 na         1 35W      -0.274100
     21 C18         -1.9270     5.0440    -4.6170 ca         1 35W       0.320800
     22 N19         -3.2210     5.2170    -4.3780 nb         1 35W      -0.606000
     23 N22         -1.9860     6.6700    -6.3350 nb         1 35W      -0.676000
     24 C23         -5.3540     6.2990    -4.8310 cp         1 35W      -0.099500
     25 C25         -7.3370     5.8570    -3.5660 ca         1 35W       0.416200
     26 N26         -8.0230     6.6650    -4.3520 nb         1 35W      -0.690000
     27 C27         -7.4620     7.3040    -5.3600 ca         1 35W       0.416200
     28 H1           1.9240    -0.0000    -0.9380 ha         1 35W       0.133500
     29 H2           3.1560    -0.0010     1.1990 ha         1 35W       0.132000
     30 H3          -0.1650    -0.5160    -2.0580 h1         1 35W       0.064200
     31 H4          -1.6970    -0.5210    -1.1740 h1         1 35W       0.064200
     32 H5          -3.8360     7.5620    -6.6700 h4         1 35W       0.036100
     33 H7          -5.6650     7.6750    -6.4670 ha         1 35W       0.149000
     34 H8           1.9230     0.0000     3.3330 ha         1 35W       0.130000
     35 H9          -0.5430     0.0020     3.3330 ha         1 35W       0.132000
     36 H10         -1.7750     0.0010     1.1970 ha         1 35W       0.133500
     37 H11         -0.2450     1.3720    -3.7660 h4         1 35W       0.169000
     38 H12         -2.1130     4.4060    -1.3660 h4         1 35W       0.057100
     39 H13          1.2150     3.9800    -4.5010 h4         1 35W       0.179000
     40 H14          0.7270     5.7730    -6.2670 hn         1 35W       0.308700
     41 H15         -7.8380     5.3540    -2.7480 h4         1 35W       0.024100
     42 H16         -8.0630     7.9580    -5.9790 h4         1 35W       0.024100
     43 H6          -5.4320     4.9820    -3.1210 ha         1 35W       0.149000
@<TRIPOS>BOND
     1    27    12 ar  
     2    27    26 ar  
     3    12    24 ar  
     4    10    23 ar  
     5    10     9 ar  
     6    23     8 ar  
     7    26    25 ar  
     8    24     9 1   
     9    24    11 ar  
    10     9    22 ar  
    11     8    20 1   
    12     8    21 ar  
    13    25    11 ar  
    14    20    19 1   
    15    22    21 ar  
    16    21     7 1   
    17    19     7 2   
    18     7     5 1   
    19     5    18 1   
    20     5    17 2   
    21    18     6 2   
    22    17    16 1   
    23     6    16 1   
    24    16     4 1   
    25     4     1 1   
    26     2     1 ar  
    27     2     3 ar  
    28     1    15 ar  
    29     3    13 ar  
    30    15    14 ar  
    31    13    14 ar  
    32     2    28 1   
    33     3    29 1   
    34     4    30 1   
    35     4    31 1   
    36    10    32 1   
    37    11    43 1   
    38    12    33 1   
    39    13    34 1   
    40    14    35 1   
    41    15    36 1   
    42    17    37 1   
    43    18    38 1   
    44    19    39 1   
    45    20    40 1   
    46    25    41 1   
    47    27    42 1   
@<TRIPOS>SUBSTRUCTURE
     1 35W         1 TEMP              0 ****  ****    0 ROOT
