@<TRIPOS>MOLECULE
molecule
   39    42     1     0     0
SMALL
bcc


@<TRIPOS>ATOM
      1 C5           0.0000     0.0000     0.0000 cc         1 35X      -0.106300
      2 C6           1.3640     0.0000     0.0000 cd         1 35X      -0.248100
      3 C7           1.7880     0.0000     1.3420 cd         1 35X       0.360200
      4 C10          2.1540    -0.8340    -2.2630 cc         1 35X      -0.086100
      5 C13          3.8990     0.5120    -2.7100 ca         1 35X       0.349500
      6 C17          5.4920     2.1500    -2.5340 ca         1 35X       0.339900
      7 C20          5.1580     3.9940     0.7360 ca         1 35X      -0.234300
      8 C21          5.7640     5.0430     1.3960 ca         1 35X       0.416700
      9 C24          6.6330     4.4050    -1.1110 ca         1 35X      -0.234300
     10 C1          -3.4800    -1.1710     3.1730 c3         1 35X      -0.094100
     11 C2          -2.0280    -1.1760     2.6930 c3         1 35X      -0.102400
     12 N4          -0.4080     0.0010     1.2870 na         1 35X       0.066400
     13 N8           0.7280     0.0010     2.1050 nc         1 35X      -0.515800
     14 C9           2.2410    -0.0020    -1.2000 cd         1 35X      -0.150000
     15 N11          3.1370    -0.5350    -3.1670 na         1 35X      -0.274100
     16 C14          3.3720     0.9010    -1.4590 ca         1 35X       0.319800
     17 N15          3.9230     1.9030    -0.7860 nb         1 35X      -0.605000
     18 C16          4.9720     2.5370    -1.2960 cp         1 35X       0.322500
     19 N18          4.9430     1.1610    -3.2100 nb         1 35X      -0.677000
     20 C19          5.5930     3.6570    -0.5490 cp         1 35X      -0.099500
     21 N22          6.7380     5.7270     0.8280 nb         1 35X      -0.690000
     22 C23          7.1760     5.4460    -0.3850 ca         1 35X       0.416700
     23 H1          -0.6400     0.0000    -0.8740 h4         1 35X       0.169000
     24 H2           2.8170    -0.0000     1.6830 h4         1 35X       0.057100
     25 H3           1.4180    -1.6200    -2.3810 h4         1 35X       0.178000
     26 H4           6.3490     2.6710    -2.9440 h4         1 35X       0.036100
     27 H5           4.3570     3.4370     1.2080 ha         1 35X       0.149000
     28 H6           5.4350     5.3090     2.3930 h4         1 35X       0.024600
     29 H7           6.9980     4.1790    -2.1050 ha         1 35X       0.149000
     30 H8          -4.1370    -1.3840     2.3390 hc         1 35X       0.037367
     31 H9          -3.6100    -1.9270     3.9380 hc         1 35X       0.037367
     32 H10         -3.7210    -0.1970     3.5830 hc         1 35X       0.037367
     33 H11         -1.8240    -2.1020     2.1690 hc         1 35X       0.060700
     34 H12         -1.3650    -1.0900     3.5460 hc         1 35X       0.060700
     35 H13         -2.4620    -0.0800     0.8950 h1         1 35X       0.058700
     36 H14         -2.0030     0.9320     2.2720 h1         1 35X       0.058700
     37 H15          3.2800    -1.0120    -4.0350 hn         1 35X       0.308700
     38 H16          7.9790     6.0330    -0.8120 h4         1 35X       0.024600
     39 C3          -1.7990     0.0060     1.7480 c3         1 35X       0.076300
@<TRIPOS>BOND
     1    15     4 1
     2    15     5 1
     3     4    14 2
     4     3     2 1
     5     3    13 2
     6     5    19 ar
     7     5    16 ar
     8    14     2 1
     9    14    16 1
    10    19     6 ar
    11     2     1 2
    12    13    12 1
    13    16    17 ar
    14     6    18 ar
    15     1    12 1
    16    12    39 1
    17    17    18 ar
    18    18    20 1
    19    39    11 1
    20    20     9 ar
    21    20     7 ar
    22     9    22 ar
    23    11    10 1
    24     7     8 ar
    25    22    21 ar
    26     8    21 ar
    27     1    23 1
    28     3    24 1
    29     4    25 1
    30     6    26 1
    31     7    27 1
    32     8    28 1
    33     9    29 1
    34    10    30 1
    35    10    31 1
    36    10    32 1
    37    11    33 1
    38    11    34 1
    39    39    35 1
    40    39    36 1
    41    15    37 1
    42    22    38 1
@<TRIPOS>SUBSTRUCTURE
     1 35X         1 TEMP              0 ****  ****    0 ROOT
