@<TRIPOS>MOLECULE
35X
   39    42     1     0     0
SMALL
bcc


@<TRIPOS>ATOM
      1 C5         -0.1760   -0.2500   -0.1270 cc        1 35X     -0.143300
      2 C6          1.0160    0.4810   -0.3090 cd        1 35X     -0.198100
      3 C7          1.0120    1.4480    0.7770 cd        1 35X      0.330200
      4 C10         1.9240   -0.5740   -2.4040 cc        1 35X     -0.106100
      5 C13         3.9000    0.4940   -2.6670 ca        1 35X      0.317500
      6 C17         5.6600    1.8840   -2.3400 ca        1 35X      0.314900
      7 C20         5.7670    3.4850    0.9900 ca        1 35X     -0.225300
      8 C21         6.4850    4.5040    1.6410 ca        1 35X      0.389700
      9 C24         6.4560    4.4690   -1.0990 ca        1 35X     -0.225300
     10 C1         -3.1690   -1.5450    3.3450 c3        1 35X     -0.095100
     11 C2         -1.8400   -1.0400    2.8450 c3        1 35X     -0.102400
     12 N4         -0.8160    0.2960    0.9910 na        1 35X      0.087400
     13 N8         -0.0970    1.2940    1.5370 nc        1 35X     -0.513800
     14 C9          1.9910    0.3150   -1.3240 cd        1 35X     -0.121000
     15 N11         3.0580   -0.4770   -3.2120 na        1 35X     -0.274100
     16 C14         3.2550    1.0280   -1.4550 ca        1 35X      0.314800
     17 N15         3.8390    1.9880   -0.7100 nb        1 35X     -0.578000
     18 C16         5.0410    2.4200   -1.1540 cp        1 35X      0.311500
     19 N18         5.1180    0.9320   -3.1050 nb        1 35X     -0.637000
     20 C19         5.7570    3.4660   -0.4110 cp        1 35X     -0.097500
     21 N22         7.1660    5.4700    0.9950 nb        1 35X     -0.660000
     22 C23         7.1420    5.4420   -0.3520 ca        1 35X      0.389700
     23 H1         -0.6010   -1.0730   -0.6980 h4        1 35X      0.170000
     24 H2          1.7640    2.2090    0.9890 h4        1 35X      0.062100
     25 H3          1.1300   -1.2810   -2.6540 h4        1 35X      0.172000
     26 H4          6.6490    2.2550   -2.6610 h4        1 35X      0.036100
     27 H5          5.2260    2.7270    1.5730 ha        1 35X      0.152000
     28 H6          6.5160    4.5510    2.7450 h4        1 35X      0.023600
     29 H7          6.4620    4.5070   -2.1960 ha        1 35X      0.152000
     30 H8         -3.8570   -0.6950    3.5730 hc        1 35X      0.038033
     31 H9         -3.6590   -2.2000    2.5830 hc        1 35X      0.038033
     32 H10        -3.0240   -2.1400    4.2790 hc        1 35X      0.038033
     33 H11        -1.3550   -0.4020    3.6290 hc        1 35X      0.058700
     34 H12        -1.1550   -1.9050    2.6470 hc        1 35X      0.058700
     35 H13        -2.5270   -0.8730    0.7830 h1        1 35X      0.062200
     36 H14        -2.7270    0.6410    1.7900 h1        1 35X      0.062200
     37 H15         3.2380   -0.9980   -4.0300 hn        1 35X      0.314700
     38 H16         7.7020    6.2480   -0.8590 h4        1 35X      0.023600
     39 C3         -2.0410   -0.2270    1.5670 c3        1 35X      0.057300
@<TRIPOS>BOND
     1    1    2 2   
     2    1   12 1   
     3    1   23 1   
     4    2    3 1   
     5    2   14 1   
     6    3   13 2   
     7    3   24 1   
     8    4   14 2   
     9    4   15 1   
    10    4   25 1   
    11    5   15 1   
    12    5   16 ar  
    13    5   19 ar  
    14    6   18 ar  
    15    6   19 ar  
    16    6   26 1   
    17    7    8 ar  
    18    7   20 ar  
    19    7   27 1   
    20    8   21 ar  
    21    8   28 1   
    22    9   20 ar  
    23    9   22 ar  
    24    9   29 1   
    25   10   11 1   
    26   10   30 1   
    27   10   31 1   
    28   10   32 1   
    29   11   33 1   
    30   11   34 1   
    31   11   39 1   
    32   12   13 1   
    33   12   39 1   
    34   14   16 1   
    35   15   37 1   
    36   16   17 ar  
    37   17   18 ar  
    38   18   20 1   
    39   21   22 ar  
    40   22   38 1   
    41   35   39 1   
    42   36   39 1   
@<TRIPOS>SUBSTRUCTURE
     1 35X         1 TEMP              0 ****  ****    0 ROOT
