@<TRIPOS>MOLECULE
361
   37    40     1     0     0
SMALL
bcc


@<TRIPOS>ATOM
      1 F21          0.0000     0.0000     0.0000 f          1 361      -0.089900
      2 C5           1.3510     0.0000     0.0000 ca         1 361       0.097900
      3 C6           2.0440     0.0000     1.2000 ca         1 361       0.153900
      4 F27          1.3690     0.0010     2.3710 f          1 361      -0.084900
      5 C4           2.0430    -0.0070    -1.1980 ca         1 361      -0.101000
      6 C3           3.4250    -0.0080    -1.1990 ca         1 361      -0.217300
      7 C2           4.1180    -0.0020     0.0000 ca         1 361       0.131900
      8 F22          5.4700    -0.0030    -0.0020 f          1 361      -0.108900
      9 C1           3.4290    -0.0010     1.2000 ca         1 361      -0.124000
     10 C9           4.1780    -0.0160    -2.5040 c3         1 361       0.003600
     11 C14          3.8080     1.2300    -3.3150 c3         1 361      -0.091500
     12 N23          3.9420     2.4230    -2.4670 nz         1 361       0.077400
     13 C13          4.7480     1.3520    -4.5190 c3         1 361      -0.012700
     14 N12          4.7730     0.0730    -5.2350 na         1 361       0.296700
     15 C29          5.2000    -0.1760    -6.5010 ca         1 361      -0.230200
     16 C19          5.0140    -1.5680    -6.7140 ca         1 361      -0.072900
     17 N18          4.4930    -2.0740    -5.5820 nc         1 361      -0.419100
     18 C11          4.3490    -1.1180    -4.7060 cd         1 361       0.160800
     19 C10          3.8010    -1.2670    -3.3050 c3         1 361       0.011300
     20 C20          5.3640    -2.1390    -7.9400 ca         1 361       0.507200
     21 N21          5.8640    -1.3300    -8.8610 nb         1 361      -0.583000
     22 C22          6.0470    -0.0340    -8.6860 ca         1 361       0.452200
     23 C23          5.7320     0.6150    -7.5160 ca         1 361      -0.231300
     24 H4           1.5010    -0.0120    -2.1360 ha         1 361       0.137000
     25 H1           3.9710     0.0020     2.1370 ha         1 361       0.161000
     26 H9           5.2450    -0.0180    -2.3130 hc         1 361       0.071700
     27 H14          2.7870     1.1420    -3.6640 hx         1 361       0.105700
     28 HN23         3.2070     2.4330    -1.7870 hn         1 361       0.229800
     29 HN2A         4.8270     2.4040    -2.0010 hn         1 361       0.229800
     30 H13          5.7460     1.5940    -4.1760 h1         1 361       0.041700
     31 H13A         4.3870     2.1300    -5.1810 h1         1 361       0.041700
     32 H10          4.2330    -2.1430    -2.8370 hc         1 361       0.057700
     33 H10A         2.7230    -1.3630    -3.3450 hc         1 361       0.057700
     34 H20          5.2320    -3.1980    -8.1280 h4         1 361       0.005100
     35 H22          6.4630     0.5440    -9.5020 h4         1 361      -0.011900
     36 H23          5.8890     1.6790    -7.3910 ha         1 361       0.115000
     37 H233         3.8750     3.2450    -3.0340 hn         1 361       0.229800
@<TRIPOS>BOND
     1     1     2 1   
     2     2     3 ar  
     3     2     5 ar  
     4     3     4 1   
     5     3     9 ar  
     6     5     6 ar  
     7     5    24 1   
     8     6     7 ar  
     9     6    10 1   
    10     7     8 1   
    11     7     9 ar  
    12     9    25 1   
    13    10    11 1   
    14    10    19 1   
    15    10    26 1   
    16    11    12 1   
    17    11    13 1   
    18    11    27 1   
    19    12    28 1   
    20    12    29 1   
    21    12    37 1   
    22    13    14 1   
    23    13    30 1   
    24    13    31 1   
    25    14    15 1   
    26    14    18 1   
    27    15    16 ar  
    28    15    23 ar  
    29    16    17 1   
    30    16    20 ar  
    31    17    18 2   
    32    18    19 1   
    33    19    32 1   
    34    19    33 1   
    35    20    21 ar  
    36    20    34 1   
    37    21    22 ar  
    38    22    23 ar  
    39    22    35 1   
    40    23    36 1   
@<TRIPOS>SUBSTRUCTURE
     1 361         1 TEMP              0 ****  ****    0 ROOT
