@<TRIPOS>MOLECULE
molecule
   37    40     1     0     0
SMALL
bcc


@<TRIPOS>ATOM
      1 F21          0.0000     0.0000     0.0000 f          1 361      -0.094900
      2 C5           1.3510     0.0000     0.0000 ca         1 361       0.105900
      3 C6           2.0440     0.0000     1.2000 ca         1 361       0.161900
      4 F27          1.3690     0.0010     2.3710 f          1 361      -0.085900
      5 C4           2.0430    -0.0070    -1.1980 ca         1 361      -0.139000
      6 C3           3.4250    -0.0080    -1.1990 ca         1 361      -0.204300
      7 C2           4.1180    -0.0020     0.0000 ca         1 361       0.149900
      8 F22          5.4700    -0.0030    -0.0020 f          1 361      -0.119900
      9 C1           3.4290    -0.0010     1.2000 ca         1 361      -0.171000
     10 C9           4.1780    -0.0160    -2.5040 c3         1 361      -0.040400
     11 C14          3.8080     1.2300    -3.3150 c3         1 361       0.089500
     12 N23          3.9420     2.4230    -2.4670 nz         1 361      -0.804600
     13 C13          4.7480     1.3520    -4.5190 c3         1 361       0.048300
     14 N12          4.7730     0.0730    -5.2350 na         1 361      -0.162300
     15 C29          5.2000    -0.1760    -6.5010 ca         1 361      -0.057200
     16 C19          5.0140    -1.5680    -6.7140 ca         1 361      -0.042900
     17 N18          4.4930    -2.0740    -5.5820 nc         1 361      -0.526100
     18 C11          4.3490    -1.1180    -4.7060 cd         1 361       0.372800
     19 C10          3.8010    -1.2670    -3.3050 c3         1 361      -0.054700
     20 C20          5.3640    -2.1390    -7.9400 ca         1 361       0.519200
     21 N21          5.8640    -1.3300    -8.8610 nb         1 361      -0.693000
     22 C22          6.0470    -0.0340    -8.6860 ca         1 361       0.464200
     23 C23          5.7320     0.6150    -7.5160 ca         1 361      -0.269300
     24 H4           1.5010    -0.0120    -2.1360 ha         1 361       0.164000
     25 H1           3.9710     0.0020     2.1370 ha         1 361       0.194000
     26 H9           5.2450    -0.0180    -2.3130 hc         1 361       0.100700
     27 H14          2.7870     1.1420    -3.6640 hx         1 361       0.128700
     28 HN23         3.2070     2.4330    -1.7870 hn         1 361       0.460467
     29 HN2A         4.8270     2.4040    -2.0010 hn         1 361       0.460467
     30 H13          5.7460     1.5940    -4.1760 h1         1 361       0.074200
     31 H13A         4.3870     2.1300    -5.1810 h1         1 361       0.074200
     32 H10          4.2330    -2.1430    -2.8370 hc         1 361       0.100200
     33 H10A         2.7230    -1.3630    -3.3450 hc         1 361       0.100200
     34 H20          5.2320    -3.1980    -8.1280 h4         1 361       0.059100
     35 H22          6.4630     0.5440    -9.5020 h4         1 361       0.038100
     36 H23          5.8890     1.6790    -7.3910 ha         1 361       0.139000
     37 H233         3.8750     3.2450    -3.0340 hn         1 361       0.460467
@<TRIPOS>BOND
     1     1     2 1
     2     2     3 ar
     3     2     5 ar
     4     3     4 1
     5     3     9 ar
     6     5     6 ar
     7     6     7 ar
     8     6    10 1
     9     7     8 1
    10     7     9 ar
    11    10    11 1
    12    10    19 1
    13    11    12 1
    14    11    13 1
    15    13    14 1
    16    14    15 1
    17    14    18 1
    18    15    16 ar
    19    15    23 ar
    20    16    17 1
    21    16    20 ar
    22    17    18 2
    23    18    19 1
    24    20    21 ar
    25    21    22 ar
    26    22    23 ar
    27     5    24 1
    28     9    25 1
    29    10    26 1
    30    11    27 1
    31    12    28 1
    32    12    29 1
    33    13    30 1
    34    13    31 1
    35    19    32 1
    36    19    33 1
    37    20    34 1
    38    22    35 1
    39    23    36 1
    40    37    12 1
@<TRIPOS>SUBSTRUCTURE
     1 361         1 TEMP              0 ****  ****    0 ROOT
