@<TRIPOS>MOLECULE
molecule
   30    33     1     0     0
SMALL
bcc


@<TRIPOS>ATOM
      1 C4           0.0000     0.0000     0.0000 ca         1 362       0.444200
      2 C6          -0.0590     0.0110     2.3030 ca         1 362       0.416200
      3 C7           2.1470    -0.0000    -1.2770 cc         1 362      -0.208000
      4 C8           3.1620     0.8320    -1.6190 cd         1 362      -0.067100
      5 C15          2.0930    -2.1570    -4.7880 ca         1 362       0.322900
      6 C17          0.2240    -3.6610    -4.1000 cc         1 362      -0.364800
      7 C22         -0.8260    -4.0960    -3.2680 cc         1 362       0.376200
      8 C1           1.3210     0.0110     2.3880 ca         1 362      -0.256300
      9 C2           2.0700     0.0000     1.2230 ca         1 362      -0.091000
     10 C3           1.3940     0.0000     0.0000 ca         1 362      -0.138100
     11 N5          -0.6700     0.0060     1.1340 nb         1 362      -0.690000
     12 N9           3.6030     0.5330    -2.8760 na         1 362      -0.272100
     13 C11          2.8800    -0.5170    -3.3950 ca         1 362       0.334500
     14 C12          1.9360    -0.9010    -2.4210 ca         1 362       0.332800
     15 N13          1.0990    -1.9030    -2.6610 nb         1 362      -0.624000
     16 C14          1.1560    -2.5400    -3.8240 ca         1 362       0.388500
     17 N16          2.9260    -1.1630    -4.5530 nb         1 362      -0.669000
     18 C18          0.2320    -4.4630    -5.2050 cd         1 362      -0.100300
     19 N19         -0.7670    -5.3560    -5.0670 na         1 362      -0.037600
     20 N21         -1.4130    -5.1070    -3.8510 nd         1 362      -0.513800
     21 H1          -0.5370    -0.0040    -0.9410 h4         1 362       0.036100
     22 H2          -0.6490     0.0170     3.2120 h4         1 362       0.021100
     23 H3           3.5620     1.6170    -0.9890 h4         1 362       0.179000
     24 H4           2.1340    -2.6810    -5.7350 h4         1 362       0.028100
     25 H5          -1.0990    -3.6660    -2.3110 h4         1 362       0.069100
     26 H6           1.8110     0.0130     3.3540 ha         1 362       0.137000
     27 H7           3.1530    -0.0000     1.2600 ha         1 362       0.136000
     28 H8           4.3450     1.0080    -3.3500 hn         1 362       0.308700
     29 H9           0.9180    -4.3930    -6.0410 h4         1 362       0.170000
     30 H10         -1.0070    -6.0740    -5.7220 hn         1 362       0.332700
@<TRIPOS>BOND
     1     2     8 ar
     2     2    11 ar
     3     8     9 ar
     4    11     1 ar
     5     9    10 ar
     6     1    10 ar
     7    10     3 1
     8     3     4 2
     9     3    14 1
    10     4    12 1
    11    14    15 ar
    12    14    13 ar
    13    15    16 ar
    14     7    20 2
    15     7     6 1
    16    20    19 1
    17    12    13 1
    18    16     6 1
    19    16     5 ar
    20     6    18 2
    21    13    17 ar
    22    19    18 1
    23    17     5 ar
    24     1    21 1
    25     2    22 1
    26     4    23 1
    27     5    24 1
    28     7    25 1
    29     8    26 1
    30     9    27 1
    31    12    28 1
    32    18    29 1
    33    19    30 1
@<TRIPOS>SUBSTRUCTURE
     1 362         1 TEMP              0 ****  ****    0 ROOT
