@<TRIPOS>MOLECULE
362
   30    33     1     0     0
SMALL
bcc


@<TRIPOS>ATOM
      1 C4          0.0510   -0.4040    0.0780 ca        1 362      0.419200
      2 C6         -0.0500   -0.0090    2.3460 ca        1 362      0.391200
      3 C7          2.1550   -0.0830   -1.2190 cc        1 362     -0.184000
      4 C8          3.2470    0.7320   -1.5430 cd        1 362     -0.079100
      5 C15         2.1530   -2.1630   -4.7690 ca        1 362      0.298900
      6 C17         0.2210   -3.5980   -4.1500 cc        1 362     -0.321800
      7 C22        -0.8130   -4.1660   -3.3020 cc        1 362      0.343200
      8 C1          1.3070    0.3570    2.3960 ca        1 362     -0.247300
      9 C2          2.0480    0.3320    1.2160 ca        1 362     -0.097000
     10 C3          1.4230   -0.0540    0.0180 ca        1 362     -0.127100
     11 N5         -0.6720   -0.3840    1.2110 nb        1 362     -0.665000
     12 N9          3.7350    0.4430   -2.8140 na        1 362     -0.273100
     13 C11         2.9570   -0.5860   -3.3560 ca        1 362      0.298500
     14 C12         1.9310   -0.9510   -2.3660 ca        1 362      0.330800
     15 N13         1.0330   -1.9290   -2.6070 nb        1 362     -0.600000
     16 C14         1.1400   -2.5400   -3.8100 ca        1 362      0.387500
     17 N16         3.0600   -1.2040   -4.5700 nb        1 362     -0.628000
     18 C18         0.1170   -4.3130   -5.3610 cd        1 362     -0.125300
     19 N19        -0.9210   -5.2240   -5.1830 na        1 362     -0.018600
     20 N21        -1.4740   -5.1430   -3.9690 nd        1 362     -0.517800
     21 H1         -0.4940   -0.7150   -0.8320 h4        1 362      0.042100
     22 H2         -0.6730   -0.0050    3.2570 h4        1 362      0.021100
     23 H3          3.7120    1.5160   -0.9390 h4        1 362      0.175000
     24 H4          2.2120   -2.6840   -5.7400 h4        1 362      0.028100
     25 H5         -1.0540   -3.8780   -2.2760 h4        1 362      0.063100
     26 H6          1.7690    0.6520    3.3470 ha        1 362      0.141000
     27 H7          3.1130    0.6040    1.2210 ha        1 362      0.131000
     28 H8          4.4880    0.8890   -3.2680 hn        1 362      0.314700
     29 H9          0.6770   -4.2420   -6.2920 h4        1 362      0.177000
     30 H10        -1.2580   -5.8840   -5.8440 hn        1 362      0.323700
@<TRIPOS>BOND
     1    1   10 ar  
     2    1   11 ar  
     3    1   21 1   
     4    2    8 ar  
     5    2   11 ar  
     6    2   22 1   
     7    3    4 2   
     8    3   10 1   
     9    3   14 1   
    10    4   12 1   
    11    4   23 1   
    12    5   16 ar  
    13    5   17 ar  
    14    5   24 1   
    15    6    7 1   
    16    6   16 1   
    17    6   18 2   
    18    7   20 2   
    19    7   25 1   
    20    8    9 ar  
    21    8   26 1   
    22    9   10 ar  
    23    9   27 1   
    24   12   13 1   
    25   12   28 1   
    26   13   14 ar  
    27   13   17 ar  
    28   14   15 ar  
    29   15   16 ar  
    30   18   19 1   
    31   18   29 1   
    32   19   20 1   
    33   19   30 1   
@<TRIPOS>SUBSTRUCTURE
     1 362         1 TEMP              0 ****  ****    0 ROOT
