@<TRIPOS>MOLECULE
molecule
   21    23     1     0     0
SMALL
bcc


@<TRIPOS>ATOM
      1 N3           0.0000     0.0000     0.0000 na         1 363      -0.277100
      2 C5           1.3750     0.0000     0.0000 ca         1 363       0.334500
      3 C6           1.7910     0.0000     1.3480 ca         1 363       0.318800
      4 C8           3.9840    -0.0010     0.6690 ca         1 363       0.384500
      5 C1           0.5650     0.0010     2.1470 cc         1 363      -0.303800
      6 C2          -0.4650     0.0010     1.2850 cd         1 363      -0.084100
      7 N7           3.0860    -0.0010     1.6470 nb         1 363      -0.636000
      8 C9           3.5680    -0.0020    -0.6660 ca         1 363       0.328900
      9 N10          2.2850    -0.0020    -0.9670 nb         1 363      -0.671000
     10 C11          5.4310    -0.0020     0.9940 cc         1 363      -0.370800
     11 C12          5.9780    -0.0010     2.2440 cd         1 363      -0.067300
     12 N13          7.3180    -0.0020     2.1030 na         1 363      -0.042600
     13 N15          7.6150    -0.0040     0.7350 nd         1 363      -0.511800
     14 C16          6.4920    -0.0090     0.0670 cc         1 363       0.349200
     15 H1          -0.5750    -0.0000    -0.8190 hn         1 363       0.306700
     16 H2           0.5000     0.0010     3.2290 ha         1 363       0.166000
     17 H3          -1.5110     0.0010     1.5670 h4         1 363       0.173000
     18 H4           4.3060    -0.0030    -1.4590 h4         1 363       0.032100
     19 H5           5.4330     0.0000     3.1800 h4         1 363       0.190000
     20 H6           7.9870    -0.0000     2.8480 hn         1 363       0.332700
     21 H7           6.3940    -0.0110    -1.0120 h4         1 363       0.049100
@<TRIPOS>BOND
     1    14    13 2   
     2    14    10 1   
     3    13    12 1   
     4     8     9 ar  
     5     8     4 ar  
     6     9     2 ar  
     7    10     4 1   
     8    10    11 2   
     9     4     7 ar  
    10    12    11 1   
    11     2     1 1   
    12     2     3 ar  
    13     1     6 1   
    14     7     3 ar  
    15     3     5 1   
    16     6     5 2   
    17     1    15 1   
    18     5    16 1   
    19     6    17 1   
    20     8    18 1   
    21    11    19 1   
    22    12    20 1   
    23    14    21 1   
@<TRIPOS>SUBSTRUCTURE
     1 363         1 TEMP              0 ****  ****    0 ROOT
