@<TRIPOS>MOLECULE
363
   21    23     1     0     0
SMALL
bcc


@<TRIPOS>ATOM
      1 N3         -0.0370    0.0000   -0.0510 na        1 363     -0.281100
      2 C5          1.3610   -0.0010   -0.0150 ca        1 363      0.299500
      3 C6          1.7760   -0.0000    1.3970 ca        1 363      0.313800
      4 C8          3.9620   -0.0020    0.7310 ca        1 363      0.380500
      5 C1          0.5510    0.0010    2.1720 cc        1 363     -0.289800
      6 C2         -0.5040    0.0010    1.2650 cd        1 363     -0.093100
      7 N7          3.0770   -0.0010    1.7550 nb        1 363     -0.607000
      8 C9          3.5360   -0.0020   -0.6490 ca        1 363      0.304900
      9 N10         2.2600   -0.0020   -1.0450 nb        1 363     -0.631000
     10 C11         5.3770   -0.0030    1.0190 cc        1 363     -0.323800
     11 C12         5.9930   -0.0000    2.2880 cd        1 363     -0.093300
     12 N13         7.3650   -0.0030    2.0510 na        1 363     -0.023600
     13 N15         7.6610   -0.0060    0.7480 nd        1 363     -0.516800
     14 C16         6.4820   -0.0070    0.0780 cc        1 363      0.313200
     15 H1         -0.5880    0.0000   -0.8690 hn        1 363      0.311700
     16 H2          0.4870    0.0010    3.2560 ha        1 363      0.170000
     17 H3         -1.5790    0.0020    1.4630 h4        1 363      0.171000
     18 H4          4.2880   -0.0030   -1.4570 h4        1 363      0.032100
     19 H5          5.5580    0.0030    3.2870 h4        1 363      0.193000
     20 H6          8.0910   -0.0020    2.7280 hn        1 363      0.323700
     21 H7          6.4380   -0.0090   -1.0110 h4        1 363      0.044100
@<TRIPOS>BOND
     1    1    2 1   
     2    1    6 1   
     3    1   15 1   
     4    2    3 ar  
     5    2    9 ar  
     6    3    5 1   
     7    3    7 ar  
     8    4    7 ar  
     9    4    8 ar  
    10    4   10 1   
    11    5    6 2   
    12    5   16 1   
    13    6   17 1   
    14    8    9 ar  
    15    8   18 1   
    16   10   11 2   
    17   10   14 1   
    18   11   12 1   
    19   11   19 1   
    20   12   13 1   
    21   12   20 1   
    22   13   14 2   
    23   14   21 1   
@<TRIPOS>SUBSTRUCTURE
     1 363         1 TEMP              0 ****  ****    0 ROOT
