@<TRIPOS>MOLECULE
364
   45    46     1     0     0
SMALL
bcc


@<TRIPOS>ATOM
      1 CAM         0.0970    1.0320    0.7720 ca        1 364     -0.124500
      2 CAI         1.4840    0.9200    0.8560 ca        1 364     -0.151500
      3 CAH         2.0630   -0.2720    1.2850 ca        1 364     -0.169000
      4 CAJ         1.2460   -1.3520    1.6200 ca        1 364     -0.151500
      5 CAN        -0.1410   -1.2480    1.5420 ca        1 364     -0.124500
      6 CAV        -0.7370   -0.0410    1.1240 cp        1 364     -0.003000
      7 CAW        -2.1920    0.0830    1.0520 cq        1 364     -0.068000
      8 CAS        -2.9860   -1.0640    0.9430 ca        1 364     -0.112000
      9 CAO        -2.8160    1.3420    1.1090 ca        1 364     -0.178000
     10 CAK        -4.2020    1.4350    1.0460 ca        1 364     -0.168000
     11 CAP        -4.9890    0.2900    0.9320 ca        1 364     -0.148000
     12 CAX        -4.3930   -0.9790    0.8840 ca        1 364      0.048000
     13 CAY        -5.1860   -2.2020    0.8150 c2        1 364      0.001000
     14 CAT        -4.6750   -3.2930    0.1470 c2        1 364     -0.213000
     15 CAQ        -6.4540   -2.2750    1.4510 c2        1 364     -0.495000
     16 CAL        -7.0660   -3.5410    1.4750 c2        1 364     -0.033000
     17 CAR        -6.5340   -4.6190    0.8230 c2        1 364     -0.313000
     18 NAZ        -5.3540   -4.5400    0.0050 na        1 364     -0.120000
     19 CAU        -4.4910   -5.7120    0.0640 c3        1 364     -0.109000
     20 CBA        -3.5750   -6.1060    1.2220 c2        1 364     -0.332000
     21 PBB        -3.4730   -9.7670    0.9390 p3        1 364      2.456000
     22 OAD        -2.2960   -9.9830    1.8060 o         1 364     -1.155667
     23 OAE        -3.2750   -9.6430   -0.5210 o         1 364     -1.155667
     24 OAA        -4.8090  -10.1600    1.4370 o         1 364     -1.155667
     25 PBC        -2.4420   -5.2370    2.3070 p5        1 364      1.973000
     26 OAF        -1.8750   -4.0240    1.6640 o         1 364     -0.852500
     27 OAG        -1.2180   -6.3160    2.2770 oh        1 364     -0.831000
     28 OAB        -2.9650   -5.2370    3.6880 o         1 364     -0.852500
     29 OAC        -3.4830   -7.3450    1.4170 o         1 364     -0.413000
     30 HAM        -0.3430    1.9730    0.4130 ha        1 364      0.176000
     31 HAI         2.1180    1.7720    0.5780 ha        1 364      0.111500
     32 HAH         3.1560   -0.3620    1.3510 ha        1 364      0.095000
     33 HAJ         1.6920   -2.3050    1.9420 ha        1 364      0.111500
     34 HAN        -0.7680   -2.1390    1.7920 ha        1 364      0.176000
     35 HAS        -2.5270   -2.0780    0.9330 ha        1 364      0.225000
     36 HAO        -2.2170    2.2550    1.2260 ha        1 364      0.088000
     37 HAK        -4.6820    2.4230    1.0930 ha        1 364      0.081000
     38 HAP        -6.0840    0.3680    0.8900 ha        1 364      0.126000
     39 HAT        -3.6880   -3.2660   -0.3410 h4        1 364      0.118000
     40 HAQ        -6.8790   -1.4210    1.9760 ha        1 364      0.068000
     41 HAL        -8.0090   -3.6660    2.0290 ha        1 364      0.052000
     42 HAR        -6.9820   -5.6190    0.8720 h4        1 364      0.101000
     43 HAU1       -5.1620   -6.6000   -0.1320 h1        1 364      0.084500
     44 HAU2       -3.7910   -5.6200   -0.8220 h1        1 364      0.084500
     45 HOAC       -1.4720   -7.2170    2.4610 ho        1 364      0.254000
@<TRIPOS>BOND
     1    1    2 1   
     2    1    6 1   
     3    1   30 1   
     4    2    3 1   
     5    2   31 1   
     6    3    4 1   
     7    3   32 1   
     8    4    5 1   
     9    4   33 1   
    10    5    6 1   
    11    5   34 1   
    12    6    7 1   
    13    7    8 1   
    14    7    9 1   
    15    8   12 1   
    16    8   35 1   
    17    9   10 1   
    18    9   36 1   
    19   10   11 1   
    20   10   37 1   
    21   11   12 1   
    22   11   38 1   
    23   12   13 1   
    24   13   14 1   
    25   13   15 1   
    26   14   18 1   
    27   14   39 1   
    28   15   16 1   
    29   15   40 1   
    30   16   17 1   
    31   16   41 1   
    32   17   18 1   
    33   17   42 1   
    34   18   19 1   
    35   19   20 1   
    36   19   43 1   
    37   19   44 1   
    38   20   25 1   
    39   20   29 1   
    40   21   22 1   
    41   21   23 1   
    42   21   24 1   
    43   25   26 1   
    44   25   27 1   
    45   25   28 1   
    46   27   45 1   
@<TRIPOS>SUBSTRUCTURE
     1 364         1 TEMP              0 ****  ****    0 ROOT
