@<TRIPOS>MOLECULE
molecule
   45    47     1     0     0
SMALL
bcc


@<TRIPOS>ATOM
      1 CAM          0.0000     0.0000     0.0000 ca         1 364      -0.101000
      2 CAI          1.3950     0.0000     0.0000 ca         1 364      -0.135500
      3 CAH          2.0920     0.0000     1.2090 ca         1 364      -0.142000
      4 CAJ          1.3950    -0.0000     2.4160 ca         1 364      -0.135500
      5 CAN         -0.0000    -0.0000     2.4160 ca         1 364      -0.101000
      6 CAV         -0.6980    -0.0010     1.2080 cp         1 364      -0.004000
      7 CAW         -2.1450    -0.0000     1.2080 cp         1 364      -0.064000
      8 CAS         -2.8420    -1.2080     1.2070 ca         1 364      -0.068000
      9 CAO         -2.8420     1.2070     1.2080 ca         1 364      -0.168000
     10 CAK         -4.2360     1.2080     1.2070 ca         1 364      -0.160000
     11 CAP         -4.9340    -0.0000     1.2060 ca         1 364      -0.154000
     12 CAX         -4.2390    -1.2100     1.2060 cp         1 364       0.006000
     13 CAY         -4.9610    -2.4600     1.2040 cp         1 364      -0.110000
     14 CAT         -4.4160    -3.5890     0.6060 ca         1 364       0.057700
     15 CAQ         -6.2150    -2.5570     1.7990 ca         1 364      -0.152000
     16 CAL         -6.8970    -3.7710     1.7870 ca         1 364      -0.167000
     17 CAR         -6.3040    -4.8650     1.1760 ca         1 364      -0.093300
     18 NAZ         -5.1030    -4.7290     0.6180 na         1 364       0.072900
     19 CAU         -4.4960    -5.9140    -0.0270 c3         1 364       0.023300
     20 CBA         -3.6390    -6.7490     0.9410 c3         1 364       0.032400
     21 PBB         -3.1690    -8.3670     0.2310 p5         1 364       0.989200
     22 OAD         -2.3320    -9.2320     1.1260 o          1 364      -0.846167
     23 OAE         -2.4720    -7.9760    -1.1750 o          1 364      -0.846167
     24 OAA         -4.5770    -9.0080    -0.2340 o          1 364      -0.846167
     25 PBC         -2.4660    -5.7200     1.8910 p5         1 364       0.989200
     26 OAF         -1.4320    -5.1820     0.7730 o          1 364      -0.846167
     27 OAG         -1.5810    -6.8040     2.7030 o          1 364      -0.846167
     28 OAB         -3.0980    -4.6620     2.7460 o          1 364      -0.846167
     29 OAC         -4.5610    -7.1490     1.9690 oh         1 364      -0.663800
     30 HAM         -0.5410    -0.0000    -0.9380 ha         1 364       0.134500
     31 HAI          1.9370     0.0000    -0.9380 ha         1 364       0.112500
     32 HAH          3.1750    -0.0000     1.2090 ha         1 364       0.105000
     33 HAJ          1.9360    -0.0000     3.3540 ha         1 364       0.112500
     34 HAN         -0.5420    -0.0010     3.3540 ha         1 364       0.134500
     35 HAS         -2.2990    -2.1460     1.2070 ha         1 364       0.216000
     36 HAO         -2.3000     2.1450     1.2090 ha         1 364       0.099000
     37 HAK         -4.7780     2.1460     1.2070 ha         1 364       0.091000
     38 HAP         -6.0170     0.0010     1.2050 ha         1 364       0.112000
     39 HAT         -3.4420    -3.5420     0.1350 h4         1 364       0.220000
     40 HAQ         -6.6600    -1.6900     2.2720 ha         1 364       0.099000
     41 HAL         -7.8730    -3.8590     2.2480 ha         1 364       0.106000
     42 HAR         -6.8130    -5.8210     1.1530 h4         1 364       0.182000
     43 HAU1        -3.8720    -5.5830    -0.8480 h1         1 364       0.089700
     44 HAU2        -5.2880    -6.5400    -0.4200 h1         1 364       0.089700
     45 HOAC        -4.1570    -7.8020     2.5170 ho         1 364       0.426000
@<TRIPOS>BOND
     1     1     6 ar
     2     1     2 ar
     3     1    30 1
     4     2     3 ar
     5     2    31 1
     6     3     4 ar
     7     3    32 1
     8     4     5 ar
     9     4    33 1
    10     5     6 ar
    11     5    34 1
    12     6     7 1
    13     7     9 ar
    14     7     8 ar
    15     8    12 ar
    16     8    35 1
    17     9    10 ar
    18     9    36 1
    19    10    11 ar
    20    10    37 1
    21    11    12 ar
    22    11    38 1
    23    12    13 1
    24    13    14 ar
    25    13    15 ar
    26    14    18 2
    27    14    39 1
    28    15    16 ar
    29    15    40 1
    30    16    17 ar
    31    16    41 1
    32    17    18 1
    33    17    42 1
    34    18    19 1
    35    19    20 1
    36    19    43 1
    37    19    44 1
    38    20    21 1
    39    20    29 1
    40    20    25 1
    41    21    22 1
    42    21    23 1
    43    21    24 1
    44    25    28 1
    45    25    26 1
    46    25    27 1
    47    29    45 1
@<TRIPOS>SUBSTRUCTURE
     1 364         1 TEMP              0 ****  ****    0 ROOT
