@<TRIPOS>MOLECULE
367
   52    54     1     0     0
SMALL
bcc


@<TRIPOS>ATOM
      1 C01          0.0000     0.0000     0.0000 ca         1 367      -0.055000
      2 C02          1.4040     0.0000     0.0000 ca         1 367      -0.050400
      3 C03          2.1160     0.0000     1.2010 ca         1 367      -0.105000
      4 C04          1.4340    -0.0010     2.4140 ca         1 367      -0.022000
      5 C05          0.0390    -0.0020     2.4320 ca         1 367      -0.114000
      6 C06         -0.6930    -0.0010     1.2330 ca         1 367       0.002000
      7 C10         -0.7320     0.0020    -1.1990 ca         1 367      -0.023000
      8 C11         -2.1270     0.0000    -1.1810 ca         1 367      -0.224900
      9 C13         -2.0980    -0.0020     1.2340 ca         1 367      -0.020000
     10 C14         -2.8090    -0.0000     0.0330 ca         1 367      -0.132000
     11 C17         -2.8720     0.0000    -2.4300 ce         1 367       0.214800
     12 N18         -2.1880     0.0020    -3.5550 n2         1 367      -0.515100
     13 N19         -4.2600    -0.0010    -2.5200 nz         1 367       0.196400
     14 N20          2.1430     0.0020    -1.1900 ns         1 367      -0.087100
     15 C21          3.4150     0.5540    -1.4250 c          1 367       0.618700
     16 O22          4.0800     1.1380    -0.5730 o          1 367      -0.578100
     17 C27          3.9020     0.4220    -2.8090 ca         1 367      -0.207600
     18 C28          5.2670     0.3930    -3.0480 ca         1 367       0.034000
     19 C29          5.7290     0.2680    -4.3580 ca         1 367      -0.126000
     20 C30          4.8190     0.1760    -5.4120 ca         1 367       0.052000
     21 C31          3.4480     0.2070    -5.1560 ca         1 367      -0.145500
     22 C32          2.9870     0.3300    -3.8460 ca         1 367       0.024000
     23 S36          2.3110     0.0940    -6.4750 sy         1 367       1.170800
     24 O38          2.0300    -1.5130    -6.6490 os         1 367      -0.461500
     25 O42          1.0840     0.7320    -6.0250 o          1 367      -0.582800
     26 O43          2.9870     0.5490    -7.6830 o          1 367      -0.582800
     27 C44          1.1340    -1.9600    -7.6540 c3         1 367       0.289400
     28 C45          1.0360    -3.4770    -7.6210 c3         1 367      -0.059400
     29 C46          0.0710    -4.0100    -8.6670 c3         1 367       0.240400
     30 O47          0.0210    -5.4270    -8.5670 oh         1 367      -0.589800
     31 H03          3.1990     0.0010     1.1880 ha         1 367       0.151000
     32 H04          1.9880    -0.0010     3.3450 ha         1 367       0.121000
     33 H05         -0.4840    -0.0030     3.3810 ha         1 367       0.121000
     34 H10         -0.2090     0.0020    -2.1470 ha         1 367       0.105000
     35 H13         -2.6340    -0.0020     2.1750 ha         1 367       0.122000
     36 H14         -3.8920    -0.0010     0.0460 ha         1 367       0.086000
     37 H18         -1.1880     0.0030    -3.5350 hn         1 367       0.385400
     38 H191        -4.5320    -0.0010    -3.4830 hn         1 367       0.219133
     39 H192        -4.6240     0.8160    -2.0700 hn         1 367       0.219133
     40 H20          1.7110    -0.4480    -1.9720 hn         1 367       0.165500
     41 H28          5.9680     0.4650    -2.2260 ha         1 367       0.130000
     42 H29          6.7930     0.2440    -4.5580 ha         1 367       0.126000
     43 H30          5.1780     0.0800    -6.4300 ha         1 367       0.134000
     44 H32          1.9240     0.3550    -3.6400 ha         1 367       0.107000
     45 H441         0.1540    -1.5330    -7.4790 h1         1 367      -0.000800
     46 H442         1.4960    -1.6440    -8.6250 h1         1 367      -0.000800
     47 H451         2.0180    -3.8970    -7.8020 hc         1 367       0.031200
     48 H452         0.6970    -3.7860    -6.6390 hc         1 367       0.031200
     49 H461        -0.9160    -3.5990    -8.4940 h1         1 367      -0.016800
     50 H462         0.4130    -3.7280    -9.6550 h1         1 367      -0.016800
     51 H47         -0.5750    -5.7670    -9.2130 ho         1 367       0.398000
     52 H193        -4.6220    -0.8190    -2.0720 hn         1 367       0.219133
@<TRIPOS>BOND
     1     1     2 ar  
     2     1     6 ar  
     3     1     7 ar  
     4     2     3 ar  
     5     2    14 1   
     6     3     4 ar  
     7     3    31 1   
     8     4     5 ar  
     9     4    32 1   
    10     5     6 ar  
    11     5    33 1   
    12     6     9 ar  
    13     7     8 ar  
    14     7    34 1   
    15     8    10 ar  
    16     8    11 1   
    17     9    10 ar  
    18     9    35 1   
    19    10    36 1   
    20    11    12 2   
    21    11    13 1   
    22    12    37 1   
    23    13    38 1   
    24    13    39 1   
    25    13    52 1   
    26    14    15 1   
    27    14    40 1   
    28    15    16 2   
    29    15    17 1   
    30    17    18 ar  
    31    17    22 ar  
    32    18    19 ar  
    33    18    41 1   
    34    19    20 ar  
    35    19    42 1   
    36    20    21 ar  
    37    20    43 1   
    38    21    22 ar  
    39    21    23 1   
    40    22    44 1   
    41    23    24 1   
    42    23    25 2   
    43    23    26 2   
    44    24    27 1   
    45    27    28 1   
    46    27    45 1   
    47    27    46 1   
    48    28    29 1   
    49    28    47 1   
    50    28    48 1   
    51    29    30 1   
    52    29    49 1   
    53    29    50 1   
    54    30    51 1   
@<TRIPOS>SUBSTRUCTURE
     1 367         1 TEMP              0 ****  ****    0 ROOT
