@<TRIPOS>MOLECULE
molecule
   45    48     1     0     0
SMALL
bcc


@<TRIPOS>ATOM
      1 C10          0.0000     0.0000     0.0000 ca         1 369       0.136100
      2 C12         -1.7080    -1.2510    -2.9180 ca         1 369      -0.169000
      3 C13         -2.0350    -2.4710    -3.4760 ca         1 369      -0.118500
      4 C15         -0.9640    -3.5980    -1.6440 ca         1 369      -0.118500
      5 C19         -2.7580    -1.1970     1.4670 ca         1 369      -0.124000
      6 C21         -4.7860     0.0030     1.9240 ca         1 369      -0.143000
      7 C22         -4.0780     1.1940     1.9390 ca         1 369       0.099100
      8 C23         -2.7120     1.1900     1.7190 ca         1 369      -0.133000
      9 C1          -0.7360    -0.0160     3.7250 c3         1 369      -0.062800
     10 C2           0.0250    -0.0100     2.4230 ca         1 369      -0.064300
     11 C3           1.3830    -0.0100     2.4420 ca         1 369      -0.124000
     12 C4           2.1050     0.0000     1.2350 ca         1 369      -0.010000
     13 C5           3.5090     0.0010     1.2310 ca         1 369      -0.151000
     14 C6           4.1830     0.0120     0.0430 ca         1 369       0.117100
     15 O1           5.5420     0.0130     0.0420 oh         1 369      -0.523100
     16 C7           3.4930     0.0230    -1.1730 ca         1 369      -0.152000
     17 C8           2.1330     0.0000    -1.2040 ca         1 369      -0.091000
     18 C9           1.4080     0.0000     0.0000 ca         1 369      -0.063000
     19 O2          -0.6860    -0.0010    -1.1710 os         1 369      -0.243200
     20 C11         -1.0080    -1.2020    -1.7210 ca         1 369       0.128100
     21 C14         -1.6640    -3.6470    -2.8410 ca         1 369       0.070100
     22 O3          -1.9940    -4.8370    -3.4100 oh         1 369      -0.520100
     23 C16         -0.6360    -2.3780    -1.0860 ca         1 369      -0.169000
     24 C17         -0.6810    -0.0060     1.2110 cp         1 369      -0.052000
     25 C18         -2.0510    -0.0070     1.4820 cp         1 369      -0.022000
     26 C20         -4.1260    -1.1930     1.6880 ca         1 369      -0.115000
     27 H12         -1.9980    -0.3330    -3.4140 ha         1 369       0.148000
     28 H13         -2.5820    -2.5090    -4.4110 ha         1 369       0.144000
     29 H15         -0.6740    -4.5160    -1.1480 ha         1 369       0.144000
     30 H19         -2.2420    -2.1310     1.2820 ha         1 369       0.140000
     31 H21         -5.8550     0.0060     2.0960 ha         1 369       0.142000
     32 H23         -2.1590     2.1210     1.7310 ha         1 369       0.147000
     33 H1          -0.5360     0.9030     4.2640 hc         1 369       0.054367
     34 H1A         -0.4200    -0.8610     4.3240 hc         1 369       0.054367
     35 H1B         -1.7970    -0.0930     3.5230 hc         1 369       0.054367
     36 H3           1.9120     0.0850     3.3830 ha         1 369       0.139000
     37 H5           4.0530    -0.0030     2.1680 ha         1 369       0.146000
     38 HO1          5.8560     0.9020     0.0500 ho         1 369       0.421000
     39 H7           4.0420     0.0310    -2.1070 ha         1 369       0.142000
     40 H8           1.6120     0.0090    -2.1540 ha         1 369       0.149000
     41 HO3         -1.3020    -5.1120    -3.9870 ho         1 369       0.416000
     42 H16         -0.0900    -2.3390    -0.1520 ha         1 369       0.148000
     43 H20         -4.6790    -2.1240     1.6750 ha         1 369       0.138000
     44 HO4         -5.0040     2.7940     1.3810 ho         1 369       0.416000
     45 O4          -4.7420     2.3990     2.1960 oh         1 369      -0.529100
@<TRIPOS>BOND
     1     1    18 ar  
     2     1    19 1   
     3     1    24 ar  
     4     2     3 ar  
     5     2    20 ar  
     6     3    21 ar  
     7     4    21 ar  
     8     4    23 ar  
     9     5    25 ar  
    10     5    26 ar  
    11     6     7 ar  
    12     6    26 ar  
    13     7     8 ar  
    14     7    45 1   
    15     8    25 ar  
    16     9    10 1   
    17    10    11 ar  
    18    10    24 ar  
    19    11    12 ar  
    20    12    13 ar  
    21    12    18 ar  
    22    13    14 ar  
    23    14    15 1   
    24    14    16 ar  
    25    16    17 ar  
    26    17    18 ar  
    27    19    20 1   
    28    20    23 ar  
    29    21    22 1   
    30    24    25 1   
    31     2    27 1   
    32     3    28 1   
    33     4    29 1   
    34     5    30 1   
    35     6    31 1   
    36     8    32 1   
    37     9    33 1   
    38     9    34 1   
    39     9    35 1   
    40    11    36 1   
    41    13    37 1   
    42    15    38 1   
    43    16    39 1   
    44    17    40 1   
    45    22    41 1   
    46    23    42 1   
    47    26    43 1   
    48    45    44 1   
@<TRIPOS>SUBSTRUCTURE
     1 369         1 TEMP              0 ****  ****    0 ROOT
