@<TRIPOS>MOLECULE
369
   45    48     1     0     0
SMALL
bcc


@<TRIPOS>ATOM
      1 C10         0.2170    0.1040    0.2510 ca        1 369      0.124100
      2 C12        -1.4700   -0.7700   -2.8280 ca        1 369     -0.134000
      3 C13        -1.9100   -1.8790   -3.5360 ca        1 369     -0.156500
      4 C15        -1.2400   -3.3270   -1.6860 ca        1 369     -0.156500
      5 C19        -2.7210   -0.5380    1.5930 ca        1 369     -0.149000
      6 C21        -4.5920    0.9720    1.8670 ca        1 369     -0.209000
      7 C22        -3.6970    2.0500    1.8810 ca        1 369      0.121100
      8 C23        -2.3140    1.8470    1.7520 ca        1 369     -0.138000
      9 C1         -0.2070    0.5440    3.9770 c3        1 369     -0.059800
     10 C2          0.4280    0.3170    2.6570 ca        1 369     -0.042300
     11 C3          1.7850    0.1080    2.5600 ca        1 369     -0.135000
     12 C4          2.4140   -0.1020    1.3030 ca        1 369      0.010000
     13 C5          3.8140   -0.3040    1.2100 ca        1 369     -0.166000
     14 C6          4.3950   -0.4880   -0.0320 ca        1 369      0.129100
     15 O1          5.7580   -0.6810   -0.0670 oh        1 369     -0.496100
     16 C7          3.6130   -0.4770   -1.2200 ca        1 369     -0.198000
     17 C8          2.2570   -0.2870   -1.1350 ca        1 369     -0.065000
     18 C9          1.6260   -0.1010    0.1250 ca        1 369     -0.084000
     19 O2         -0.5390    0.2400   -0.9150 os        1 369     -0.249200
     20 C11        -0.9150   -0.9440   -1.5470 ca        1 369      0.085100
     21 C14        -1.7900   -3.1580   -2.9620 ca        1 369      0.095100
     22 O3         -2.2420   -4.2130   -3.7240 oh        1 369     -0.498100
     23 C16        -0.8030   -2.2120   -0.9720 ca        1 369     -0.134000
     24 C17        -0.3850    0.3140    1.4810 cp        1 369     -0.052000
     25 C18        -1.8300    0.5440    1.6080 cp        1 369      0.001000
     26 C20        -4.0910   -0.3200    1.7220 ca        1 369     -0.092000
     27 H12        -1.5550    0.2420   -3.2500 ha        1 369      0.151500
     28 H13        -2.3490   -1.7740   -4.5380 ha        1 369      0.145000
     29 H15        -1.1520   -4.3300   -1.2460 ha        1 369      0.145000
     30 H19        -2.3340   -1.5600    1.4670 ha        1 369      0.137000
     31 H21        -5.6730    1.1440    1.9670 ha        1 369      0.133000
     32 H23        -1.6340    2.7110    1.7600 ha        1 369      0.157000
     33 H1         -0.7890    1.5000    3.9640 hc        1 369      0.051700
     34 H1A        -0.9160   -0.2900    4.2100 hc        1 369      0.051700
     35 H1B         0.5560    0.6000    4.7920 hc        1 369      0.051700
     36 H3          2.4130    0.1050    3.4640 ha        1 369      0.140000
     37 H5          4.4310   -0.3100    2.1200 ha        1 369      0.153000
     38 HO1         6.0210   -0.7790   -0.9930 ho        1 369      0.420000
     39 H7          4.1040   -0.6190   -2.1930 ha        1 369      0.137000
     40 H8          1.6300   -0.2700   -2.0410 ha        1 369      0.150000
     41 HO3        -2.1080   -5.0250   -3.2150 ho        1 369      0.417000
     42 H16        -0.3700   -2.3320    0.0320 ha        1 369      0.151500
     43 H20        -4.7850   -1.1740    1.7050 ha        1 369      0.134000
     44 HO4        -5.0780    3.3580    2.0670 ho        1 369      0.418000
     45 O4         -4.1110    3.3560    2.0240 oh        1 369     -0.498100
@<TRIPOS>BOND
     1    1   18 ar  
     2    1   19 1   
     3    1   24 ar  
     4    2    3 ar  
     5    2   20 ar  
     6    2   27 1   
     7    3   21 ar  
     8    3   28 1   
     9    4   21 ar  
    10    4   23 ar  
    11    4   29 1   
    12    5   25 ar  
    13    5   26 ar  
    14    5   30 1   
    15    6    7 ar  
    16    6   26 ar  
    17    6   31 1   
    18    7    8 ar  
    19    7   45 1   
    20    8   25 ar  
    21    8   32 1   
    22    9   10 1   
    23    9   33 1   
    24    9   34 1   
    25    9   35 1   
    26   10   11 ar  
    27   10   24 ar  
    28   11   12 ar  
    29   11   36 1   
    30   12   13 ar  
    31   12   18 ar  
    32   13   14 ar  
    33   13   37 1   
    34   14   15 1   
    35   14   16 ar  
    36   15   38 1   
    37   16   17 ar  
    38   16   39 1   
    39   17   18 ar  
    40   17   40 1   
    41   19   20 1   
    42   20   23 ar  
    43   21   22 1   
    44   22   41 1   
    45   23   42 1   
    46   24   25 1   
    47   26   43 1   
    48   44   45 1   
@<TRIPOS>SUBSTRUCTURE
     1 369         1 TEMP              0 ****  ****    0 ROOT
