@<TRIPOS>MOLECULE
36A
   59    62     1     0     0
SMALL
bcc


@<TRIPOS>ATOM
      1 C            0.0000     0.0000     0.0000 c          1 36A       0.956600
      2 N            1.9970     1.2000    -0.6930 nz         1 36A       0.080400
      3 O           -0.6710    -1.1440     0.2070 o          1 36A      -0.813300
      4 N1           9.0640    -5.6600     8.9700 nb         1 36A      -0.747000
      5 C2           9.3820    -4.3780     8.9810 ca         1 36A       0.689900
      6 N3           8.8810    -3.5190     8.1190 nb         1 36A      -0.670000
      7 C4           8.0210    -3.9160     7.1880 ca         1 36A       0.275800
      8 C5           7.6510    -5.2710     7.1330 ca         1 36A      -0.243200
      9 C6           8.2130    -6.1510     8.0750 ca         1 36A       0.602200
     10 N6           7.8860    -7.4950     8.0700 nu         1 36A      -0.469900
     11 N7           6.7760    -5.4060     6.1080 nc         1 36A      -0.492100
     12 C8           6.5910    -4.2480     5.5420 cd         1 36A       0.245700
     13 N9           7.3360    -3.2970     6.1730 na         1 36A       0.205000
     14 CA           1.5080     0.0000     0.0000 c3         1 36A      -0.204500
     15 CB           2.0170     0.0000     1.4420 c3         1 36A       0.000600
     16 CD           5.9420    -0.2800     2.9530 c3         1 36A       0.068700
     17 SD           4.1470    -0.1260     3.1550 ss         1 36A      -0.342200
     18 CG           3.5420    -0.1250     1.4440 c3         1 36A       0.050700
     19 C1'          7.3960    -1.8750     5.8300 c3         1 36A       0.158800
     20 C2'          8.5980    -1.5880     4.8950 c3         1 36A       0.129100
     21 O2'          9.7880    -1.3530     5.6520 oh         1 36A      -0.532800
     22 C27          8.4830    -8.3960     9.0590 c3         1 36A       0.221100
     23 C28          7.9660    -9.7960     8.8390 ca         1 36A      -0.115300
     24 C29          8.6400   -10.6550     7.9920 ca         1 36A      -0.082000
     25 C3'          8.1430    -0.2990     4.1670 c3         1 36A       0.121100
     26 O3'          8.7150     0.8540     4.7870 oh         1 36A      -0.544800
     27 C30          8.1670   -11.9400     7.7890 ca         1 36A      -0.036600
     28 C31          7.0200   -12.3620     8.4360 ca         1 36A      -0.091000
     29 C32          6.3470   -11.5020     9.2840 ca         1 36A      -0.090000
     30 C33          6.8230   -10.2220     9.4890 ca         1 36A      -0.082000
     31 Cl34         9.0120   -13.0190     6.7250 cl         1 36A      -0.023400
     32 C4'          6.6110    -0.2940     4.3290 c3         1 36A       0.184100
     33 O4'          6.2520    -1.4950     5.0340 os         1 36A      -0.384600
     34 OXT         -0.6040     1.0300    -0.1820 o          1 36A      -0.813300
     35 HN           1.4540     1.3520    -1.5200 hn         1 36A       0.211133
     36 HNA          2.9570     1.0720    -0.9430 hn         1 36A       0.211133
     37 H2          10.0800    -4.0210     9.7280 h5         1 36A      -0.004900
     38 HN6          7.2310    -7.8480     7.4020 hn         1 36A       0.313800
     39 H8           5.9390    -4.0670     4.6960 h5         1 36A       0.040800
     40 HA           1.8690    -0.8840    -0.5110 hx         1 36A       0.086700
     41 HB           1.7300     0.9260     1.9260 hc         1 36A       0.069200
     42 HBA          1.5850    -0.8370     1.9780 hc         1 36A       0.069200
     43 HD           6.1690    -1.2030     2.4320 h1         1 36A       0.038700
     44 HDA          6.3150     0.5600     2.3790 h1         1 36A       0.038700
     45 HG           3.9740     0.7120     0.9090 h1         1 36A       0.020200
     46 HGA          3.8290    -1.0510     0.9590 h1         1 36A       0.020200
     47 H1'          7.4560    -1.2630     6.7220 h2         1 36A       0.074700
     48 H2'          8.7360    -2.3980     4.1890 h1         1 36A       0.022700
     49 HO2'        10.5420    -1.5420     5.1180 ho         1 36A       0.390000
     50 H27          8.2160    -8.0660    10.0560 h1         1 36A       0.030700
     51 H27A         9.5600    -8.3880     8.9520 h1         1 36A       0.030700
     52 H29          9.5380   -10.3230     7.4860 ha         1 36A       0.119000
     53 H3'          8.4110    -0.3450     3.1180 h1         1 36A       0.010700
     54 HO3'         9.1450     1.3820     4.1340 ho         1 36A       0.389000
     55 H31          6.6470   -13.3670     8.2770 ha         1 36A       0.115000
     56 H32          5.4500   -11.8350     9.7920 ha         1 36A       0.109000
     57 H33          6.2950    -9.5480    10.1540 ha         1 36A       0.112000
     58 H4'          6.3060     0.5730     4.9020 h1         1 36A       0.059700
     59 HN3          1.9130     1.9920    -0.0870 hn         1 36A       0.211133
@<TRIPOS>BOND
     1     1     3 1   
     2     1    14 1   
     3     1    34 1   
     4     2    14 1   
     5     2    35 1   
     6     2    36 1   
     7     2    59 1   
     8     4     5 ar  
     9     4     9 ar  
    10     5     6 ar  
    11     5    37 1   
    12     6     7 ar  
    13     7     8 ar  
    14     7    13 1   
    15     8     9 ar  
    16     8    11 1   
    17     9    10 1   
    18    10    22 1   
    19    10    38 1   
    20    11    12 2   
    21    12    13 1   
    22    12    39 1   
    23    13    19 1   
    24    14    15 1   
    25    14    40 1   
    26    15    18 1   
    27    15    41 1   
    28    15    42 1   
    29    16    17 1   
    30    16    32 1   
    31    16    43 1   
    32    16    44 1   
    33    17    18 1   
    34    18    45 1   
    35    18    46 1   
    36    19    20 1   
    37    19    33 1   
    38    19    47 1   
    39    20    21 1   
    40    20    25 1   
    41    20    48 1   
    42    21    49 1   
    43    22    23 1   
    44    22    50 1   
    45    22    51 1   
    46    23    24 ar  
    47    23    30 ar  
    48    24    27 ar  
    49    24    52 1   
    50    25    26 1   
    51    25    32 1   
    52    25    53 1   
    53    26    54 1   
    54    27    28 ar  
    55    27    31 1   
    56    28    29 ar  
    57    28    55 1   
    58    29    30 ar  
    59    29    56 1   
    60    30    57 1   
    61    32    33 1   
    62    32    58 1   
@<TRIPOS>SUBSTRUCTURE
     1 36A         1 TEMP              0 ****  ****    0 ROOT
