@<TRIPOS>MOLECULE
molecule
   36    38     1     0     0
SMALL
bcc


@<TRIPOS>ATOM
      1 FAW          0.0000     0.0000     0.0000 f          1 36C      -0.152900
      2 CAV          1.3500     0.0000     0.0000 ca         1 36C       0.125900
      3 CAY          2.0430     0.0000     1.1990 ca         1 36C      -0.173000
      4 CAZ          3.4250    -0.0000     1.1980 ca         1 36C      -0.083000
      5 CAU          2.0440    -0.0040    -1.1980 ca         1 36C      -0.173000
      6 CAT          3.4260    -0.0040    -1.1970 ca         1 36C      -0.083000
      7 CAS          4.1160     0.0010     0.0000 ca         1 36C      -0.106300
      8 CAR          5.6230     0.0000     0.0010 c3         1 36C       0.277100
      9 NAQ          6.1110     1.3820    -0.0050 nu         1 36C      -0.895900
     10 CAP          7.4700     1.6340    -0.0060 ca         1 36C       0.609900
     11 CAC          7.9300     2.9660    -0.1210 ca         1 36C       0.277500
     12 CAB          6.9510     4.0660    -0.2400 c          1 36C       0.788100
     13 OAA          5.7630     3.8360    -0.1340 o          1 36C      -0.801300
     14 OBA          7.3750     5.3250    -0.4660 o          1 36C      -0.801300
     15 NAD          9.2220     3.2430    -0.1250 nb         1 36C      -0.582000
     16 CAE         10.1070     2.2530    -0.0180 ca         1 36C       0.249300
     17 CAF         11.4940     2.4970    -0.0170 ca         1 36C      -0.126300
     18 CAG         12.3570     1.4510     0.0950 ca         1 36C      -0.152000
     19 NAO          8.3190     0.6290     0.1080 nb         1 36C      -0.790000
     20 CAN          9.6330     0.8720     0.1010 ca         1 36C       0.341300
     21 CAM         10.5770    -0.1610     0.2140 ca         1 36C      -0.136300
     22 CAH         11.9050     0.1390     0.2080 ca         1 36C      -0.173300
     23 CAI         12.9110    -0.9770     0.3290 c3         1 36C       0.669200
     24 FAJ         12.7500    -1.8660    -0.7380 f          1 36C      -0.232967
     25 FAK         14.2030    -0.4440     0.3020 f          1 36C      -0.232967
     26 FAL         12.7110    -1.6560     1.5360 f          1 36C      -0.232967
     27 H1           1.5010    -0.0010     2.1370 ha         1 36C       0.137500
     28 H2           3.9670     0.0020     2.1360 ha         1 36C       0.142000
     29 H3           1.5040    -0.0080    -2.1370 ha         1 36C       0.137500
     30 H4           3.9680    -0.0060    -2.1350 ha         1 36C       0.142000
     31 H5           5.9840    -0.5140    -0.8820 h1         1 36C       0.044700
     32 H6           5.9840    -0.5070     0.8880 h1         1 36C       0.044700
     33 H7           5.4620     2.1420     0.0320 hn         1 36C       0.514800
     34 H9          11.8700     3.5090    -0.1040 ha         1 36C       0.149000
     35 H10         13.4230     1.6440     0.0950 ha         1 36C       0.133000
     36 H11         10.2510    -1.1900     0.3030 ha         1 36C       0.144000
@<TRIPOS>BOND
     1    13    12 1   
     2    14    12 1   
     3    12    11 1   
     4     5     6 ar  
     5     5     2 ar  
     6     1     2 1   
     7     6     7 ar  
     8     2     3 ar  
     9    11    15 ar  
    10    11    10 ar  
    11    15    16 ar  
    12     9    10 1   
    13     9     8 1   
    14     7     8 1   
    15     7     4 ar  
    16     3     4 ar  
    17    10    19 ar  
    18    16    17 ar  
    19    16    20 ar  
    20    17    18 ar  
    21    19    20 ar  
    22    20    21 ar  
    23    18    22 ar  
    24    21    22 ar  
    25    22    23 1   
    26    26    23 1   
    27    23    25 1   
    28    23    24 1   
    29     3    27 1   
    30     4    28 1   
    31     5    29 1   
    32     6    30 1   
    33     8    31 1   
    34     8    32 1   
    35     9    33 1   
    36    17    34 1   
    37    18    35 1   
    38    21    36 1   
@<TRIPOS>SUBSTRUCTURE
     1 36C         1 TEMP              0 ****  ****    0 ROOT
