@<TRIPOS>MOLECULE
36C
   36    38     1     0     0
SMALL
bcc


@<TRIPOS>ATOM
      1 FAW          0.0000     0.0000     0.0000 f          1 36C      -0.137900
      2 CAV          1.3500     0.0000     0.0000 ca         1 36C       0.093900
      3 CAY          2.0430     0.0000     1.1990 ca         1 36C      -0.138500
      4 CAZ          3.4250    -0.0000     1.1980 ca         1 36C      -0.054000
      5 CAU          2.0440    -0.0040    -1.1980 ca         1 36C      -0.138500
      6 CAT          3.4260    -0.0040    -1.1970 ca         1 36C      -0.054000
      7 CAS          4.1160     0.0010     0.0000 ca         1 36C      -0.106300
      8 CAR          5.6230     0.0000     0.0010 c3         1 36C       0.221100
      9 NAQ          6.1110     1.3820    -0.0050 nu         1 36C      -0.540900
     10 CAP          7.4700     1.6340    -0.0060 ca         1 36C       0.454900
     11 CAC          7.9300     2.9660    -0.1210 ca         1 36C       0.211500
     12 CAB          6.9510     4.0660    -0.2400 c          1 36C       0.875100
     13 OAA          5.7630     3.8360    -0.1340 o          1 36C      -0.850800
     14 OBA          7.3750     5.3250    -0.4660 o          1 36C      -0.850800
     15 NAD          9.2220     3.2430    -0.1250 nb         1 36C      -0.457000
     16 CAE         10.1070     2.2530    -0.0180 ca         1 36C       0.201300
     17 CAF         11.4940     2.4970    -0.0170 ca         1 36C      -0.096300
     18 CAG         12.3570     1.4510     0.0950 ca         1 36C      -0.133000
     19 NAO          8.3190     0.6290     0.1080 nb         1 36C      -0.712000
     20 CAN          9.6330     0.8720     0.1010 ca         1 36C       0.316300
     21 CAM         10.5770    -0.1610     0.2140 ca         1 36C      -0.108300
     22 CAH         11.9050     0.1390     0.2080 ca         1 36C      -0.202300
     23 CAI         12.9110    -0.9770     0.3290 c3         1 36C       0.634200
     24 FAJ         12.7500    -1.8660    -0.7380 f          1 36C      -0.216300
     25 FAK         14.2030    -0.4440     0.3020 f          1 36C      -0.216300
     26 FAL         12.7110    -1.6560     1.5360 f          1 36C      -0.216300
     27 H1           1.5010    -0.0010     2.1370 ha         1 36C       0.112000
     28 H2           3.9670     0.0020     2.1360 ha         1 36C       0.112500
     29 H3           1.5040    -0.0080    -2.1370 ha         1 36C       0.112000
     30 H4           3.9680    -0.0060    -2.1350 ha         1 36C       0.112500
     31 H5           5.9840    -0.5140    -0.8820 h1         1 36C       0.017200
     32 H6           5.9840    -0.5070     0.8880 h1         1 36C       0.017200
     33 H7           5.4620     2.1420     0.0320 hn         1 36C       0.394800
     34 H9          11.8700     3.5090    -0.1040 ha         1 36C       0.116000
     35 H10         13.4230     1.6440     0.0950 ha         1 36C       0.109000
     36 H11         10.2510    -1.1900     0.3030 ha         1 36C       0.115000
@<TRIPOS>BOND
     1     1     2 1   
     2     2     3 ar  
     3     2     5 ar  
     4     3     4 ar  
     5     3    27 1   
     6     4     7 ar  
     7     4    28 1   
     8     5     6 ar  
     9     5    29 1   
    10     6     7 ar  
    11     6    30 1   
    12     7     8 1   
    13     8     9 1   
    14     8    31 1   
    15     8    32 1   
    16     9    10 1   
    17     9    33 1   
    18    10    11 ar  
    19    10    19 ar  
    20    11    12 1   
    21    11    15 ar  
    22    12    13 1   
    23    12    14 1   
    24    15    16 ar  
    25    16    17 ar  
    26    16    20 ar  
    27    17    18 ar  
    28    17    34 1   
    29    18    22 ar  
    30    18    35 1   
    31    19    20 ar  
    32    20    21 ar  
    33    21    22 ar  
    34    21    36 1   
    35    22    23 1   
    36    23    24 1   
    37    23    25 1   
    38    23    26 1   
@<TRIPOS>SUBSTRUCTURE
     1 36C         1 TEMP              0 ****  ****    0 ROOT
