@<TRIPOS>MOLECULE
molecule
   40    40     1     0     0
SMALL
bcc


@<TRIPOS>ATOM
      1 N1           0.0000     0.0000     0.0000 nz         1 36D      -0.801600
      2 C1           1.4690     0.0000     0.0000 c3         1 36D       0.115500
      3 O1           1.5040    -2.4160    -0.0480 oh         1 36D      -0.606800
      4 C2           1.9790     0.0000     1.4420 c3         1 36D      -0.020100
      5 C3           1.5800     1.2870     2.1170 cc         1 36D      -0.110400
      6 S1           2.5390     2.7610     2.1360 ss         1 36D      -0.093800
      7 C4           1.3080     3.5850     3.0860 cc         1 36D      -0.043100
      8 C5           0.2940     2.7510     3.3230 cd         1 36D      -0.163000
      9 C6           0.4420     1.4840     2.7860 cd         1 36D      -0.163000
     10 C7           1.9800    -1.2490    -0.7210 c3         1 36D       0.040100
     11 C8           1.4780    -1.2480    -2.1420 c          1 36D       0.590100
     12 O2           0.7080    -2.1080    -2.5140 o          1 36D      -0.564100
     13 N2           1.8850    -0.2920    -3.0010 ns         1 36D      -0.530900
     14 C9           1.3970    -0.2910    -4.3820 c3         1 36D      -0.007300
     15 C10          1.4630     1.1300    -4.9450 c3         1 36D      -0.077400
     16 C11          0.4950     2.0290    -4.1740 c3         1 36D      -0.089400
     17 C12          0.5620     3.4500    -4.7380 c3         1 36D      -0.092100
     18 C13          2.2550    -1.2040    -5.2180 c          1 36D       0.884600
     19 O3           1.9940    -1.3610    -6.5250 o          1 36D      -0.818300
     20 O4           3.1810    -1.7940    -4.7120 o          1 36D      -0.818300
     21 H1          -0.3340     0.8440     0.4220 hn         1 36D       0.460133
     22 H2          -0.3340    -0.7880     0.5190 hn         1 36D       0.460133
     23 H4           1.8300     0.8850    -0.5110 hx         1 36D       0.118700
     24 H5           2.1600    -3.0920    -0.0880 ho         1 36D       0.451000
     25 H6           3.0590    -0.0880     1.4440 hc         1 36D       0.095200
     26 H7           1.5480    -0.8370     1.9780 hc         1 36D       0.095200
     27 H8           1.3640     4.6120     3.4250 h4         1 36D       0.188000
     28 H9          -0.5810     3.0440     3.8910 ha         1 36D       0.163000
     29 H10         -0.3060     0.7100     2.9040 ha         1 36D       0.138000
     30 H11          3.0640    -1.2490    -0.7200 h1         1 36D       0.098700
     31 H12          2.5570     0.3900    -2.7080 hn         1 36D       0.297500
     32 H13          0.3720    -0.6410    -4.4020 h1         1 36D       0.074700
     33 H14          1.1860     1.1160    -5.9930 hc         1 36D       0.071200
     34 H15          2.4710     1.5120    -4.8430 hc         1 36D       0.071200
     35 H16         -0.5130     1.6470    -4.2770 hc         1 36D       0.014200
     36 H17          0.7720     2.0430    -3.1270 hc         1 36D       0.014200
     37 H18         -0.1250     4.0870    -4.1940 hc         1 36D       0.033033
     38 H19          1.5690     3.8330    -4.6340 hc         1 36D       0.033033
     39 H20          0.2870     3.4360    -5.7860 hc         1 36D       0.033033
     40 H131        -0.3340    -0.0640    -0.9410 hn         1 36D       0.460133
@<TRIPOS>BOND
     1     1     2 1
     2     2     4 1
     3     2    10 1
     4     3    10 1
     5     4     5 1
     6     5     6 1
     7     5     9 2
     8     6     7 1
     9     7     8 2
    10     8     9 1
    11    10    11 1
    12    11    12 2
    13    11    13 1
    14    13    14 1
    15    14    15 1
    16    14    18 1
    17    15    16 1
    18    16    17 1
    19    18    19 1
    20    18    20 1
    21     1    21 1
    22     1    22 1
    23     2    23 1
    24     3    24 1
    25     4    25 1
    26     4    26 1
    27     7    27 1
    28     8    28 1
    29     9    29 1
    30    10    30 1
    31    13    31 1
    32    14    32 1
    33    15    33 1
    34    15    34 1
    35    16    35 1
    36    16    36 1
    37    17    37 1
    38    17    38 1
    39    17    39 1
    40    40     1 1
@<TRIPOS>SUBSTRUCTURE
     1 36D         1 TEMP              0 ****  ****    0 ROOT
