@<TRIPOS>MOLECULE
molecule
   18    19     1     0     0
SMALL
bcc


@<TRIPOS>ATOM
      1 CAA          0.0000     0.0000     0.0000 ca         1 36E      -0.146000
      2 CAB          1.3670     0.0000     0.0000 ca         1 36E      -0.057000
      3 FAC          5.8590     0.3430     2.6720 f          1 36E      -0.207633
      4 CAD         -0.7070     0.0010     1.1930 ca         1 36E      -0.098000
      5 CAE         -0.0420     0.0020     2.4000 ca         1 36E      -0.132000
      6 CAF          1.3450     0.0010     2.4200 ca         1 36E      -0.074200
      7 CAG          2.0630     0.0000     1.2120 ca         1 36E       0.083400
      8 FAH          4.7880     0.9370     4.6010 f          1 36E      -0.207633
      9 CAJ          3.5150     0.0020     2.8280 cc         1 36E       0.323800
     10 NAK          2.2930     0.0030     3.4250 na         1 36E      -0.240300
     11 NAL          3.3810     0.0000     1.5340 nd         1 36E      -0.542100
     12 FAM          5.0750    -1.2710     4.0860 f          1 36E      -0.207633
     13 HAA         -0.5360    -0.0010    -0.9410 ha         1 36E       0.138000
     14 HAB          1.9090    -0.0010    -0.9380 ha         1 36E       0.148000
     15 HAD         -1.7910     0.0010     1.1760 ha         1 36E       0.138000
     16 HAE         -0.6000     0.0030     3.3290 ha         1 36E       0.132000
     17 HNAK         2.1150    -0.1250     4.4020 hn         1 36E       0.313700
     18 CAI          4.8330     0.0030     3.5600 c3         1 36E       0.635600
@<TRIPOS>BOND
     1     1     2 ar
     2     1     4 ar
     3     2     7 ar
     4     3    18 1
     5     4     5 ar
     6     5     6 ar
     7     6     7 ar
     8     6    10 1
     9     7    11 1
    10     8    18 1
    11    18     9 1
    12    18    12 1
    13     9    10 1
    14     9    11 2
    15     1    13 1
    16     2    14 1
    17     4    15 1
    18     5    16 1
    19    10    17 1
@<TRIPOS>SUBSTRUCTURE
     1 36E         1 TEMP              0 ****  ****    0 ROOT
