@<TRIPOS>MOLECULE
36E
   18    17     1     0     0
SMALL
bcc


@<TRIPOS>ATOM
      1 CAA        -1.1120    0.2220    0.0990 c2        1 36E     -0.197000
      2 CAB         2.5940   -0.4830   -0.4270 c1        1 36E     -0.128500
      3 FAC         5.7710    0.8380    3.6350 f         1 36E     -0.216967
      4 CAD        -1.0130    0.3550    1.4260 ce        1 36E     -0.018700
      5 CAE         0.1880    0.2360    2.1350 cg        1 36E     -0.139300
      6 CAF         1.2190    0.1330    2.7440 c1        1 36E     -0.022200
      7 CAG         3.1870   -0.3820    0.6140 cg        1 36E     -0.048000
      8 FAH         4.4230    0.2810    5.2320 f         1 36E     -0.216967
      9 CAJ         3.6100   -0.1080    2.9100 c2        1 36E      0.596200
     10 NAK         2.3350   -0.0100    3.4750 nu        1 36E     -0.611800
     11 NAL         4.0000   -0.2940    1.6800 ne        1 36E     -0.419700
     12 FAM         5.4220   -1.2720    4.0910 f         1 36E     -0.216967
     13 HAA         2.0750   -0.5740   -1.3460 ha        1 36E      0.177500
     14 HAB        -2.0740    0.3240   -0.4190 ha        1 36E      0.120500
     15 HAD        -0.2470    0.0050   -0.5420 ha        1 36E      0.120500
     16 HAE        -1.9000    0.5730    2.0520 ha        1 36E      0.142000
     17 HNAK        2.2660    0.2310    4.4450 hn        1 36E      0.466800
     18 CAI         4.7970   -0.0640    3.9580 c3        1 36E      0.612600
@<TRIPOS>BOND
     1    1    4 2   
     2    1   14 1   
     3    1   15 1   
     4    2    7 3   
     5    2   13 1   
     6    3   18 1   
     7    4    5 1   
     8    4   16 1   
     9    5    6 3   
    10    6   10 1   
    11    7   11 1   
    12    8   18 1   
    13    9   10 1   
    14    9   11 2   
    15    9   18 1   
    16   10   17 1   
    17   12   18 1   
@<TRIPOS>SUBSTRUCTURE
     1 36E         1 TEMP              0 ****  ****    0 ROOT
