@<TRIPOS>MOLECULE
molecule
   66    70     1     0     0
SMALL
bcc


@<TRIPOS>ATOM
      1 CAA          0.0000     0.0000     0.0000 c3         1 36F      -0.046800
      2 OAB         -1.0910    -9.4150   -18.2670 o          1 36F      -0.681500
      3 OAC          5.7540     0.0020    -4.2710 o          1 36F      -0.605500
      4 CAD          2.4660     0.0000     0.4330 ca         1 36F      -0.126000
      5 CAE          3.7780     0.0000     0.0000 ca         1 36F      -0.090000
      6 CAF          1.6970     0.0010    -1.8370 ca         1 36F      -0.125000
      7 CAG          1.3410    -3.5090    -9.4700 cc         1 36F      -0.290600
      8 CAH         -0.9400    -4.9400   -13.5670 c3         1 36F      -0.083400
      9 CAI         -0.9280    -4.4560   -12.1160 c3         1 36F      -0.077400
     10 CAJ         -2.2530    -5.6730   -13.8490 c3         1 36F      -0.082400
     11 CAK          1.8970    -1.4390    -6.6130 c3         1 36F      -0.100400
     12 CAL          2.6380    -1.4410    -5.2740 c3         1 36F      -0.109400
     13 CAN         -2.2650    -6.1570   -15.3010 c3         1 36F      -0.067400
     14 CAO          1.6490    -2.8810    -7.0600 c3         1 36F       0.061300
     15 CAP          2.8850     0.0030    -4.8280 c3         1 36F       0.136000
     16 CAQ         -4.7880    -9.3020   -15.8000 c3         1 36F       0.010700
     17 NAR         -0.5230    -2.4790    -9.8090 nd         1 36F      -0.363000
     18 NAS         -0.1730    -2.2810    -8.5870 nc         1 36F      -0.207800
     19 NAT         -3.2500    -9.6460   -17.6830 ns         1 36F      -0.596900
     20 NAU         -2.2470    -7.6440   -17.5030 ns         1 36F      -0.594900
     21 OAV          5.2160     0.0020    -2.0630 os         1 36F      -0.263200
     22 SAW         -3.6800    -8.4460   -14.6080 ss         1 36F      -0.343200
     23 CAX         -2.1260    -8.9330   -17.8460 c          1 36F       0.819500
     24 CAY          1.4280     0.0000    -0.4830 ca         1 36F      -0.067300
     25 CAZ          0.3970    -3.2460   -10.4040 cd         1 36F       0.279600
     26 CBA          4.9320     0.0020    -3.3750 c          1 36F       0.825600
     27 CBB          4.0580     0.0010    -1.3570 ca         1 36F       0.048100
     28 CBC          3.0110     0.0010    -2.2800 ca         1 36F      -0.022400
     29 CBD         -3.5780    -6.8900   -15.5820 c3         1 36F       0.028400
     30 NBE          0.9400    -2.8800    -8.3420 na         1 36F       0.123400
     31 NBF          3.5950     0.0020    -3.5460 n          1 36F      -0.383000
     32 CBG         -4.3040    -8.7630   -17.1600 c3         1 36F       0.091700
     33 CBH         -3.6200    -7.3970   -17.0370 c3         1 36F       0.092700
     34 HAA         -0.0170     0.1140     1.0770 hc         1 36F       0.048033
     35 HAAA        -0.4730    -0.9360    -0.2720 hc         1 36F       0.048033
     36 HAAB        -0.5370     0.8220    -0.4580 hc         1 36F       0.048033
     37 HAD          2.2480    -0.0010     1.4940 ha         1 36F       0.144000
     38 HAE          4.5870    -0.0000     0.7210 ha         1 36F       0.149000
     39 HAF          0.8850    -0.0740    -2.5510 ha         1 36F       0.139000
     40 HAG          2.3300    -3.9080    -9.6600 h4         1 36F       0.182000
     41 HAH         -0.1080    -5.6140   -13.7300 hc         1 36F       0.041200
     42 HAHA        -0.8510    -4.0900   -14.2320 hc         1 36F       0.041200
     43 HAI         -1.7600    -3.7810   -11.9530 hc         1 36F       0.054200
     44 HAIA        -1.0170    -5.3060   -11.4500 hc         1 36F       0.054200
     45 HAJ         -2.3420    -6.5230   -13.1840 hc         1 36F       0.052200
     46 HAJA        -3.0850    -4.9980   -13.6860 hc         1 36F       0.052200
     47 HAK          2.4970    -0.9280    -7.3570 hc         1 36F       0.065700
     48 HAKA         0.9490    -0.9270    -6.5000 hc         1 36F       0.065700
     49 HAL          2.0380    -1.9510    -4.5300 hc         1 36F       0.057700
     50 HALA         3.5860    -1.9520    -5.3870 hc         1 36F       0.057700
     51 HAM          0.4740    -2.8720   -12.4990 hc         1 36F       0.052200
     52 HAMA         1.2170    -4.3970   -11.9960 hc         1 36F       0.052200
     53 HAN         -2.1760    -5.3070   -15.9660 hc         1 36F       0.056700
     54 HANA        -1.4330    -6.8310   -15.4630 hc         1 36F       0.056700
     55 HAO          2.5970    -3.3920    -7.1720 h1         1 36F       0.070200
     56 HAOA         1.0490    -3.3910    -6.3160 h1         1 36F       0.070200
     57 HAP          1.9370     0.5140    -4.7150 h1         1 36F       0.070700
     58 HAPA         3.4850     0.5130    -5.5720 h1         1 36F       0.070700
     59 HAQ         -4.6520   -10.3760   -15.7440 h1         1 36F       0.080200
     60 HAQA        -5.8210    -9.0290   -15.6250 h1         1 36F       0.080200
     61 HNAT        -3.3540   -10.6210   -17.8850 hn         1 36F       0.362500
     62 HNAU        -1.5200    -6.9580   -17.5580 hn         1 36F       0.363500
     63 HBD         -4.4310    -6.2550   -15.3760 h1         1 36F       0.078700
     64 HBG         -5.1300    -8.7090   -17.8600 h1         1 36F       0.066700
     65 HBH         -4.1090    -6.6710   -17.6760 h1         1 36F       0.067700
     66 CAM          0.3850    -3.7230   -11.8340 c3         1 36F      -0.089700
@<TRIPOS>BOND
     1     1    24 1   
     2     2    23 2   
     3     3    26 2   
     4     4     5 ar  
     5     4    24 ar  
     6     5    27 ar  
     7     6    24 ar  
     8     6    28 ar  
     9     7    25 2   
    10     7    30 1   
    11     8     9 1   
    12     8    10 1   
    13     9    66 1   
    14    10    13 1   
    15    11    12 1   
    16    11    14 1   
    17    12    15 1   
    18    66    25 1   
    19    13    29 1   
    20    14    30 1   
    21    15    31 1   
    22    16    22 1   
    23    16    32 1   
    24    17    18 2   
    25    17    25 1   
    26    18    30 1   
    27    19    23 1   
    28    19    32 1   
    29    20    23 1   
    30    20    33 1   
    31    21    26 1   
    32    21    27 1   
    33    22    29 1   
    34    26    31 1   
    35    27    28 ar  
    36    28    31 1   
    37    29    33 1   
    38    32    33 1   
    39     1    34 1   
    40     1    35 1   
    41     1    36 1   
    42     4    37 1   
    43     5    38 1   
    44     6    39 1   
    45     7    40 1   
    46     8    41 1   
    47     8    42 1   
    48     9    43 1   
    49     9    44 1   
    50    10    45 1   
    51    10    46 1   
    52    11    47 1   
    53    11    48 1   
    54    12    49 1   
    55    12    50 1   
    56    66    51 1   
    57    66    52 1   
    58    13    53 1   
    59    13    54 1   
    60    14    55 1   
    61    14    56 1   
    62    15    57 1   
    63    15    58 1   
    64    16    59 1   
    65    16    60 1   
    66    19    61 1   
    67    20    62 1   
    68    29    63 1   
    69    32    64 1   
    70    33    65 1   
@<TRIPOS>SUBSTRUCTURE
     1 36F         1 TEMP              0 ****  ****    0 ROOT
