@<TRIPOS>MOLECULE
molecule
   39    41     1     0     0
SMALL
bcc


@<TRIPOS>ATOM
      1 CAF          0.0000     0.0000     0.0000 c3         1 36G       0.096000
      2 CAE          1.5350     0.0000     0.0000 c3         1 36G      -0.097400
      3 CAC          1.3690    -1.1030     2.2300 ca         1 36G      -0.123300
      4 CAB          1.9680    -1.5490     3.3950 ca         1 36G      -0.112000
      5 CAA          1.3830    -2.5540     4.1410 ca         1 36G      -0.151000
      6 CAI          0.1930    -3.1220     3.7260 ca         1 36G      -0.113000
      7 CAJ         -0.4110    -2.6840     2.5640 ca         1 36G      -0.162000
      8 CAK          0.1770    -1.6740     1.8130 ca         1 36G       0.081600
      9 OAT         -1.8480    -2.9730     0.6480 o          1 36G      -0.645100
     10 NAP         -1.9910    -1.5920    -1.0870 ns         1 36G      -0.478100
     11 CA0          2.0290     0.0000     1.4460 c3         1 36G      -0.030100
     12 CAQ         -2.9600    -2.3950    -1.7020 ca         1 36G       0.044600
     13 CAU         -3.7750    -3.2140    -0.9340 ca         1 36G      -0.105000
     14 CAV         -4.7310    -4.0050    -1.5440 ca         1 36G      -0.147000
     15 CAW         -4.8780    -3.9830    -2.9170 ca         1 36G      -0.110000
     16 CAS         -4.0700    -3.1700    -3.6900 ca         1 36G      -0.203000
     17 CAR         -3.1130    -2.3690    -3.0870 ca         1 36G       0.103100
     18 NAH         -0.4480    -1.2490     0.6320 n          1 36G      -0.386000
     19 OAG         -2.3210    -1.5640    -3.8440 os         1 36G      -0.342900
     20 CAH         -2.5340    -1.5890    -5.2570 c3         1 36G       0.131700
     21 HAF1        -0.3660     0.0460    -1.0190 h1         1 36G       0.051700
     22 HAF2        -0.3660     0.8480     0.5660 h1         1 36G       0.051700
     23 HAE1         1.8860     0.9000    -0.4910 hc         1 36G       0.058200
     24 HAE2         1.8860    -0.9000    -0.4910 hc         1 36G       0.058200
     25 HA01         1.7920     0.9530     1.9030 hc         1 36G       0.052200
     26 HA02         3.1020    -0.1500     1.4550 hc         1 36G       0.052200
     27 HAB          2.9010    -1.1070     3.7250 ha         1 36G       0.128000
     28 HAA          1.8570    -2.8970     5.0520 ha         1 36G       0.127000
     29 HAI         -0.2650    -3.9100     4.3110 ha         1 36G       0.132000
     30 HAJ         -1.3440    -3.1290     2.2380 ha         1 36G       0.203000
     31 HAP         -1.7440    -0.7090    -1.4890 hn         1 36G       0.332500
     32 HAU         -3.6620    -3.2340     0.1430 ha         1 36G       0.182000
     33 HAV         -5.3660    -4.6440    -0.9430 ha         1 36G       0.135000
     34 HAW         -5.6270    -4.6060    -3.3900 ha         1 36G       0.130000
     35 HAS         -4.1890    -3.1530    -4.7670 ha         1 36G       0.136000
     36 HAH1        -2.3670    -2.5930    -5.6290 h1         1 36G       0.042033
     37 HAH2        -3.5510    -1.2880    -5.4740 h1         1 36G       0.042033
     38 HAH3        -1.8440    -0.9060    -5.7380 h1         1 36G       0.042033
     39 CAO         -1.4440    -1.9750     0.0850 c          1 36G       0.794100
@<TRIPOS>BOND
     1     1     2 1
     2     1    18 1
     3     2    11 1
     4     3     4 ar
     5     3     8 ar
     6     3    11 1
     7     4     5 ar
     8     5     6 ar
     9     6     7 ar
    10     7     8 ar
    11     8    18 1
    12    39     9 2
    13    39    10 1
    14    39    18 1
    15    10    12 1
    16    12    13 ar
    17    12    17 ar
    18    13    14 ar
    19    14    15 ar
    20    15    16 ar
    21    16    17 ar
    22    17    19 1
    23    19    20 1
    24     1    21 1
    25     1    22 1
    26     2    23 1
    27     2    24 1
    28    11    25 1
    29    11    26 1
    30     4    27 1
    31     5    28 1
    32     6    29 1
    33     7    30 1
    34    10    31 1
    35    13    32 1
    36    14    33 1
    37    15    34 1
    38    16    35 1
    39    20    36 1
    40    20    37 1
    41    20    38 1
@<TRIPOS>SUBSTRUCTURE
     1 36G         1 TEMP              0 ****  ****    0 ROOT
