@<TRIPOS>MOLECULE
36I
   36    39     1     0     0
SMALL
bcc


@<TRIPOS>ATOM
      1 N1           0.0000     0.0000     0.0000 nb         1 36I      -0.612000
      2 C2           1.3160     0.0000     0.0000 cp         1 36I       0.695500
      3 N3           2.0280     0.0000     1.1230 nb         1 36I      -0.667000
      4 C4           1.4270     0.0010     2.3040 ca         1 36I       0.578200
      5 C5           0.0220     0.0010     2.3550 ca         1 36I      -0.256700
      6 C6          -0.6990    -0.0000     1.1570 ca         1 36I       0.462100
      7 CAA         -2.0870     0.0000     1.3650 cc         1 36I      -0.222800
      8 CAE          2.0310    -0.0010    -1.3000 cp         1 36I      -0.168500
      9 CAF          1.3120    -0.0020    -2.4940 ca         1 36I      -0.060000
     10 CAG          1.9830    -0.0020    -3.7000 ca         1 36I      -0.117000
     11 CAH         -2.4800     0.0010     2.6300 cd         1 36I       0.015600
     12 SAI         -1.0960     0.0010     3.7110 ss         1 36I      -0.182500
     13 CAM          3.4250     0.0060    -1.3310 ca         1 36I      -0.060000
     14 CAN          4.0850     0.0050    -2.5440 ca         1 36I      -0.117000
     15 CAO          3.3670    -0.0020    -3.7250 ca         1 36I      -0.083000
     16 CAP          3.6130    -0.0010     3.1780 c3         1 36I       0.088800
     17 NAQ          2.1720     0.0000     3.4720 nh         1 36I      -0.452300
     18 CAR          1.8160     1.1430     4.3250 c3         1 36I       0.088800
     19 CAS          4.3960    -0.0610     4.4920 c3         1 36I       0.213400
     20 OAT          4.0140     1.0400     5.3200 os         1 36I      -0.409600
     21 CAU          2.6170     1.0720     5.6270 c3         1 36I       0.213400
     22 HAA         -2.7930     0.0000     0.5430 ha         1 36I       0.133000
     23 HAF          0.2290    -0.0020    -2.4750 ha         1 36I       0.121500
     24 HAG          1.4260    -0.0050    -4.6290 ha         1 36I       0.104000
     25 HAH         -3.5140     0.0010     2.9530 h4         1 36I       0.150000
     26 HAM          3.9890     0.0110    -0.4070 ha         1 36I       0.121500
     27 HAN          5.1680     0.0080    -2.5700 ha         1 36I       0.104000
     28 HAO          3.8890    -0.0020    -4.6740 ha         1 36I       0.100000
     29 HAPA         3.8720     0.9060     2.6450 h1         1 36I       0.038450
     30 HAR          2.0500     2.0660     3.8080 h1         1 36I       0.038450
     31 HARA         0.7570     1.1070     4.5510 h1         1 36I       0.038450
     32 HAS          4.1730    -0.9900     5.0020 h1         1 36I       0.015700
     33 HASA         5.4570    -0.0030     4.2820 h1         1 36I       0.015700
     34 HAU          2.4010     1.9440     6.2320 h1         1 36I       0.015700
     35 HAUA         2.3470     0.1730     6.1680 h1         1 36I       0.015700
     36 HAP          3.8570    -0.8650     2.5720 h1         1 36I       0.038450
@<TRIPOS>BOND
     1     1     2 ar  
     2     1     6 ar  
     3     2     3 ar  
     4     2     8 1   
     5     3     4 ar  
     6     4     5 ar  
     7     4    17 1   
     8     5     6 ar  
     9     5    12 1   
    10     6     7 1   
    11     7    11 2   
    12     7    22 1   
    13     8     9 ar  
    14     8    13 ar  
    15     9    10 ar  
    16     9    23 1   
    17    10    15 ar  
    18    10    24 1   
    19    11    12 1   
    20    11    25 1   
    21    13    14 ar  
    22    13    26 1   
    23    14    15 ar  
    24    14    27 1   
    25    15    28 1   
    26    16    17 1   
    27    16    19 1   
    28    16    29 1   
    29    16    36 1   
    30    17    18 1   
    31    18    21 1   
    32    18    30 1   
    33    18    31 1   
    34    19    20 1   
    35    19    32 1   
    36    19    33 1   
    37    20    21 1   
    38    21    34 1   
    39    21    35 1   
@<TRIPOS>SUBSTRUCTURE
     1 36I         1 TEMP              0 ****  ****    0 ROOT
