@<TRIPOS>MOLECULE
36J
   47    48     1     0     0
SMALL
bcc


@<TRIPOS>ATOM
      1 CAO         0.1440    0.0850   -0.6740 c3        1 36J     -0.111400
      2 CAL         1.5790    0.0190   -0.1940 c3        1 36J     -0.087400
      3 CAM         1.6910   -0.0930    1.3130 c3        1 36J     -0.100400
      4 CAV         3.1190    0.1380    1.7960 c3        1 36J      0.145100
      5 CAA         3.4180   -0.6570    3.0550 c3        1 36J     -0.100100
      6 OAP         3.2770    1.5250    2.1760 os        1 36J     -0.439900
      7 CAQ         3.8940    2.3720    1.2960 c         1 36J      0.675700
      8 OAB         4.1160    1.9780    0.1490 o         1 36J     -0.534000
      9 CAU         4.2160    3.6940    1.8670 ca        1 36J     -0.177600
     10 CAS         5.5690    4.0430    2.0560 ca        1 36J      0.203100
     11 OAD         6.5040    3.0780    1.7810 oh        1 36J     -0.484100
     12 CAH         5.9360    5.3130    2.5180 ca        1 36J     -0.257000
     13 CAR         4.9210    6.2390    2.7920 ca        1 36J      0.186100
     14 OAC         5.3280    7.4730    3.2360 oh        1 36J     -0.491100
     15 CAI         3.5690    5.9080    2.6230 ca        1 36J     -0.253000
     16 CAT         3.2160    4.6320    2.1720 ca        1 36J      0.069200
     17 CAG         1.8090    4.2750    2.0360 ce        1 36J     -0.154200
     18 CAF         0.9000    5.0400    1.4190 c2        1 36J     -0.126200
     19 CAJ        -0.5290    4.6630    1.2800 c3        1 36J     -0.055200
     20 CAK        -0.7800    3.7750    0.0730 c3        1 36J     -0.071400
     21 CAN        -0.2370    2.3810    0.2920 c3        1 36J     -0.119400
     22 CAW        -0.3770    1.4970   -0.9400 c3        1 36J      0.143100
     23 OAE         0.2460    2.0740   -2.0750 oh        1 36J     -0.599800
     24 H1         -0.5320   -0.4050    0.0740 hc        1 36J      0.050200
     25 H2          0.0570   -0.4880   -1.6360 hc        1 36J      0.050200
     26 H3          2.0800   -0.8740   -0.6570 hc        1 36J      0.053200
     27 H4          2.1530    0.9210   -0.5410 hc        1 36J      0.053200
     28 H5          1.0140    0.6480    1.8130 hc        1 36J      0.052700
     29 H6          1.3590   -1.1150    1.6350 hc        1 36J      0.052700
     30 H7          3.8580   -0.1180    0.9860 h1        1 36J      0.078700
     31 H8          3.3750   -1.7470    2.8210 hc        1 36J      0.047033
     32 H9          2.6720   -0.4220    3.8510 hc        1 36J      0.047033
     33 H10         4.4350   -0.4030    3.4370 hc        1 36J      0.047033
     34 H11         7.3850    3.4700    1.8840 ho        1 36J      0.430000
     35 H12         6.9890    5.5880    2.6640 ha        1 36J      0.159000
     36 H13         4.5380    8.0120    3.3930 ho        1 36J      0.426000
     37 H14         2.7840    6.6430    2.8500 ha        1 36J      0.144000
     38 H15         1.5410    3.2970    2.4790 ha        1 36J      0.153000
     39 H16         1.1860    6.0020    0.9600 ha        1 36J      0.125000
     40 H17        -0.8790    4.1330    2.2070 hc        1 36J      0.048200
     41 H18        -1.1450    5.5970    1.1770 hc        1 36J      0.048200
     42 H19        -1.8850    3.7230   -0.1160 hc        1 36J      0.052200
     43 H20        -0.3050    4.2200   -0.8410 hc        1 36J      0.052200
     44 H21        -0.7750    1.8940    1.1470 hc        1 36J      0.050200
     45 H22         0.8500    2.4510    0.5680 hc        1 36J      0.050200
     46 H23        -1.4620    1.4360   -1.2440 h1        1 36J      0.068700
     47 H24         1.1840    2.1770   -1.8740 ho        1 36J      0.405000
@<TRIPOS>BOND
     1    1    2 1   
     2    1   22 1   
     3    1   24 1   
     4    1   25 1   
     5    2    3 1   
     6    2   26 1   
     7    2   27 1   
     8    3    4 1   
     9    3   28 1   
    10    3   29 1   
    11    4    5 1   
    12    4    6 1   
    13    4   30 1   
    14    5   31 1   
    15    5   32 1   
    16    5   33 1   
    17    6    7 1   
    18    7    8 2   
    19    7    9 1   
    20    9   10 ar  
    21    9   16 ar  
    22   10   11 1   
    23   10   12 ar  
    24   11   34 1   
    25   12   13 ar  
    26   12   35 1   
    27   13   14 1   
    28   13   15 ar  
    29   14   36 1   
    30   15   16 ar  
    31   15   37 1   
    32   16   17 1   
    33   17   18 2   
    34   17   38 1   
    35   18   19 1   
    36   18   39 1   
    37   19   20 1   
    38   19   40 1   
    39   19   41 1   
    40   20   21 1   
    41   20   42 1   
    42   20   43 1   
    43   21   22 1   
    44   21   44 1   
    45   21   45 1   
    46   22   23 1   
    47   22   46 1   
    48   23   47 1   
@<TRIPOS>SUBSTRUCTURE
     1 36J         1 TEMP              0 ****  ****    0 ROOT
