@<TRIPOS>MOLECULE
molecule
   41    43     1     0     0
SMALL
bcc


@<TRIPOS>ATOM
      1 CAF          0.0000     0.0000     0.0000 c3         1 36K      -0.121100
      2 CAE          1.5300     0.0000     0.0000 c3         1 36K       0.047300
      3 NAD          2.0190     0.0000     1.3810 na         1 36K      -0.182300
      4 CAC          2.2920    -1.1140     2.1550 ca         1 36K      -0.091200
      5 CAB          2.2150    -2.4810     1.9340 ca         1 36K      -0.126000
      6 CAA          2.5700    -3.3600     2.9370 ca         1 36K      -0.122000
      7 CAI          3.0050    -2.8850     4.1650 ca         1 36K      -0.145000
      8 CAJ          3.0880    -1.5320     4.4020 ca         1 36K      -0.073000
      9 CAK          2.7320    -0.6290     3.3970 ca         1 36K       0.110400
     10 NAL          2.7070     0.7290     3.3270 nc         1 36K      -0.581100
     11 CAM          2.2930     1.1000     2.1420 cd         1 36K       0.504400
     12 NAN          2.1530     2.4110     1.7240 ns         1 36K      -0.477400
     13 CAO          2.4540     3.4220     2.5640 c          1 36K       0.780100
     14 OAT          2.8510     3.1810     3.6870 o          1 36K      -0.571100
     15 NAP          2.3170     4.6990     2.1570 ns         1 36K      -0.482100
     16 CAQ          2.5410     5.7500     3.0580 ca         1 36K       0.044600
     17 CAU          3.5180     5.6310     4.0350 ca         1 36K      -0.093000
     18 CAV          3.7380     6.6680     4.9220 ca         1 36K      -0.148000
     19 CAW          2.9840     7.8250     4.8380 ca         1 36K      -0.106000
     20 CAS          2.0100     7.9500     3.8660 ca         1 36K      -0.206000
     21 CAR          1.7880     6.9180     2.9690 ca         1 36K       0.108100
     22 OAG          0.8330     7.0430     2.0090 os         1 36K      -0.341900
     23 CAH          0.0990     8.2680     1.9790 c3         1 36K       0.131700
     24 HAF1        -0.3610     0.7260    -0.7180 hc         1 36K       0.050033
     25 HAF2        -0.3610    -0.9850    -0.2700 hc         1 36K       0.050033
     26 HAF3        -0.3610     0.2590     0.9880 hc         1 36K       0.050033
     27 HAE1         1.8910     0.8840    -0.5110 h1         1 36K       0.056200
     28 HAE2         1.8910    -0.8850    -0.5110 h1         1 36K       0.056200
     29 HAB          1.8760    -2.8580     0.9770 ha         1 36K       0.122000
     30 HAA          2.5090    -4.4280     2.7630 ha         1 36K       0.130000
     31 HAI          3.2810    -3.5850     4.9450 ha         1 36K       0.132000
     32 HAJ          3.4290    -1.1680     5.3640 ha         1 36K       0.146000
     33 HAN          1.8550     2.6090     0.7900 hn         1 36K       0.321500
     34 HAP          2.0880     4.8980     1.2030 hn         1 36K       0.322500
     35 HAU          4.1090     4.7260     4.1040 ha         1 36K       0.177000
     36 HAV          4.5010     6.5750     5.6850 ha         1 36K       0.137000
     37 HAW          3.1580     8.6350     5.5360 ha         1 36K       0.130000
     38 HAS          1.4230     8.8590     3.8010 ha         1 36K       0.136000
     39 HAH1        -0.6220     8.2370     1.1710 h1         1 36K       0.041367
     40 HAH2         0.7820     9.0940     1.8220 h1         1 36K       0.041367
     41 HAH3        -0.4190     8.4020     2.9210 h1         1 36K       0.041367
@<TRIPOS>BOND
     1     1     2 1
     2     2     3 1
     3     3     4 1
     4     3    11 1
     5     4     5 ar
     6     4     9 ar
     7     5     6 ar
     8     6     7 ar
     9     7     8 ar
    10     8     9 ar
    11     9    10 1
    12    10    11 2
    13    11    12 1
    14    12    13 1
    15    13    14 2
    16    13    15 1
    17    15    16 1
    18    16    17 ar
    19    16    21 ar
    20    17    18 ar
    21    18    19 ar
    22    19    20 ar
    23    20    21 ar
    24    21    22 1
    25    22    23 1
    26     1    24 1
    27     1    25 1
    28     1    26 1
    29     2    27 1
    30     2    28 1
    31     5    29 1
    32     6    30 1
    33     7    31 1
    34     8    32 1
    35    12    33 1
    36    15    34 1
    37    17    35 1
    38    18    36 1
    39    19    37 1
    40    20    38 1
    41    23    39 1
    42    23    40 1
    43    23    41 1
@<TRIPOS>SUBSTRUCTURE
     1 36K         1 TEMP              0 ****  ****    0 ROOT
