@<TRIPOS>MOLECULE
molecule
   25    25     1     0     0
SMALL
bcc


@<TRIPOS>ATOM
      1 CAA          0.0000     0.0000     0.0000 c3         1 36M      -0.090100
      2 CAH          1.5310     0.0000     0.0000 c3         1 36M      -0.088400
      3 CAI          2.0390     0.0000     1.4430 c3         1 36M       0.149400
      4 OAJ          3.4920     0.0010     1.4430 os         1 36M      -0.431900
      5 CAK          4.1030     0.0010     2.6440 c          1 36M       0.651700
      6 OAB          3.4410     0.0010     3.6630 o          1 36M      -0.552000
      7 CAM          5.5750     0.0010     2.7220 ca         1 36M      -0.145600
      8 CAF          6.3400     0.0060     1.5510 ca         1 36M      -0.058500
      9 CAD          7.7140     0.0070     1.6280 ca         1 36M      -0.172500
     10 CAL          8.3420     0.0020     2.8670 ca         1 36M       0.137100
     11 OAC          9.6980     0.0010     2.9400 oh         1 36M      -0.522100
     12 CAE          7.5870    -0.0030     4.0340 ca         1 36M      -0.172500
     13 CAG          6.2110     0.0010     3.9670 ca         1 36M      -0.058500
     14 H1          -0.3610    -0.8840     0.5110 hc         1 36M       0.038700
     15 H2          -0.3610    -0.0000    -1.0210 hc         1 36M       0.038700
     16 H3          -0.3610     0.8850     0.5100 hc         1 36M       0.038700
     17 H4           1.8920     0.8850    -0.5100 hc         1 36M       0.052700
     18 H5           1.8920    -0.8850    -0.5100 hc         1 36M       0.052700
     19 H6           1.6780    -0.8850     1.9540 h1         1 36M       0.051200
     20 H7           1.6780     0.8840     1.9540 h1         1 36M       0.051200
     21 H8           5.8510     0.0110     0.5840 ha         1 36M       0.155500
     22 H9           8.3070     0.0110     0.7210 ha         1 36M       0.147000
     23 H10         10.0120    -0.8870     2.9510 ho         1 36M       0.425000
     24 H11          8.0810    -0.0050     4.9980 ha         1 36M       0.147000
     25 H12          5.6240    -0.0030     4.8770 ha         1 36M       0.155500
@<TRIPOS>BOND
     1     6     5 2   
     2     8     9 ar  
     3     8     7 ar  
     4     5     7 1   
     5     5     4 1   
     6     9    10 ar  
     7     2     1 1   
     8     2     3 1   
     9     7    13 ar  
    10     4     3 1   
    11    10    11 1   
    12    10    12 ar  
    13    13    12 ar  
    14     1    14 1   
    15     1    15 1   
    16     1    16 1   
    17     2    17 1   
    18     2    18 1   
    19     3    19 1   
    20     3    20 1   
    21     8    21 1   
    22     9    22 1   
    23    11    23 1   
    24    12    24 1   
    25    13    25 1   
@<TRIPOS>SUBSTRUCTURE
     1 36M         1 TEMP              0 ****  ****    0 ROOT
