@<TRIPOS>MOLECULE
36M
   25    25     1     0     0
SMALL
bcc


@<TRIPOS>ATOM
      1 CAA         0.1120    0.0820   -0.0640 c3        1 36M     -0.093100
      2 CAH         1.6130    0.0610    0.0590 c3        1 36M     -0.086400
      3 CAI         2.0210    0.0030    1.5190 c3        1 36M      0.141400
      4 OAJ         3.4600   -0.0130    1.5280 os        1 36M     -0.442900
      5 CAK         4.0560   -0.0650    2.7610 c         1 36M      0.652700
      6 OAB         3.3230   -0.0940    3.7560 o         1 36M     -0.551000
      7 CAM         5.5230   -0.0790    2.7230 ca        1 36M     -0.173600
      8 CAF         6.2240   -0.0400    1.5100 ca        1 36M     -0.034000
      9 CAD         7.6130   -0.0550    1.5000 ca        1 36M     -0.205500
     10 CAL         8.3040   -0.1080    2.7240 ca        1 36M      0.158100
     11 OAC         9.6750   -0.1200    2.6510 oh        1 36M     -0.491100
     12 CAE         7.6110   -0.1470    3.9450 ca        1 36M     -0.205500
     13 CAG         6.2210   -0.1320    3.9380 ca        1 36M     -0.034000
     14 H1         -0.3160    0.9740    0.4540 hc        1 36M      0.037700
     15 H2         -0.3360   -0.8360    0.3890 hc        1 36M      0.037700
     16 H3         -0.1830    0.1230   -1.1400 hc        1 36M      0.037700
     17 H4          2.0350   -0.8280   -0.4800 hc        1 36M      0.052700
     18 H5          2.0540    0.9760   -0.4140 hc        1 36M      0.052700
     19 H6          1.6460   -0.9260    2.0220 h1        1 36M      0.052700
     20 H7          1.6650    0.9000    2.0890 h1        1 36M      0.052700
     21 H8          5.6650    0.0020    0.5600 ha        1 36M      0.158500
     22 H9          8.1780   -0.0250    0.5590 ha        1 36M      0.149000
     23 H10        10.0250   -0.1580    3.5540 ho        1 36M      0.425000
     24 H11         8.1620   -0.1880    4.8950 ha        1 36M      0.149000
     25 H12         5.6560   -0.1620    4.8850 ha        1 36M      0.158500
@<TRIPOS>BOND
     1    1    2 1   
     2    1   14 1   
     3    1   15 1   
     4    1   16 1   
     5    2    3 1   
     6    2   17 1   
     7    2   18 1   
     8    3    4 1   
     9    3   19 1   
    10    3   20 1   
    11    4    5 1   
    12    5    6 2   
    13    5    7 1   
    14    7    8 ar  
    15    7   13 ar  
    16    8    9 ar  
    17    8   21 1   
    18    9   10 ar  
    19    9   22 1   
    20   10   11 1   
    21   10   12 ar  
    22   11   23 1   
    23   12   13 ar  
    24   12   24 1   
    25   13   25 1   
@<TRIPOS>SUBSTRUCTURE
     1 36M         1 TEMP              0 ****  ****    0 ROOT
