@<TRIPOS>MOLECULE
36N
   14    15     1     0     0
SMALL
bcc


@<TRIPOS>ATOM
      1 N3         -0.0200   -0.0000   -0.0300 na        1 36N     -0.281100
      2 C5          1.3780   -0.0000   -0.0110 ca        1 36N      0.306500
      3 C6          1.8070   -0.0000    1.3990 ca        1 36N      0.300800
      4 C8          3.9680    0.0000    0.6980 ca        1 36N      0.257900
      5 C1          0.5930   -0.0000    2.1870 cc        1 36N     -0.283800
      6 C2         -0.4720   -0.0000    1.2920 cd        1 36N     -0.095100
      7 N7          3.1200   -0.0000    1.7320 nb        1 36N     -0.587000
      8 C9          3.5450    0.0000   -0.6730 ca        1 36N      0.296900
      9 N10         2.2620    0.0000   -1.0550 nb        1 36N     -0.635000
     10 H1         -0.5800    0.0000   -0.8420 hn        1 36N      0.312700
     11 H2          5.0430    0.0000    0.9430 h4        1 36N      0.032100
     12 H3          0.5420   -0.0000    3.2720 ha        1 36N      0.172000
     13 H4         -1.5450   -0.0000    1.5010 h4        1 36N      0.172000
     14 H5          4.2920    0.0000   -1.4850 h4        1 36N      0.031100
@<TRIPOS>BOND
     1    1    2 1   
     2    1    6 1   
     3    1   10 1   
     4    2    3 ar  
     5    2    9 ar  
     6    3    5 1   
     7    3    7 ar  
     8    4    7 ar  
     9    4    8 ar  
    10    4   11 1   
    11    5    6 2   
    12    5   12 1   
    13    6   13 1   
    14    8    9 ar  
    15    8   14 1   
@<TRIPOS>SUBSTRUCTURE
     1 36N         1 TEMP              0 ****  ****    0 ROOT
