@<TRIPOS>MOLECULE
molecule
   14    15     1     0     0
SMALL
bcc


@<TRIPOS>ATOM
      1 N3           0.0000     0.0000     0.0000 na         1 36N      -0.278100
      2 C5           1.3730     0.0000     0.0000 ca         1 36N       0.346500
      3 C6           1.7900     0.0000     1.3480 ca         1 36N       0.305800
      4 C8           3.9770    -0.0000     0.6720 ca         1 36N       0.268900
      5 C1           0.5640     0.0000     2.1480 cc         1 36N      -0.297800
      6 C2          -0.4670     0.0000     1.2860 cd         1 36N      -0.085100
      7 N7           3.0850    -0.0000     1.6450 nb         1 36N      -0.615000
      8 C9           3.5690     0.0000    -0.6540 ca         1 36N       0.319900
      9 N10          2.2850    -0.0000    -0.9630 nb         1 36N      -0.677000
     10 H1          -0.5740    -0.0000    -0.8200 hn         1 36N       0.306700
     11 H2           5.0340    -0.0000     0.9110 h4         1 36N       0.031100
     12 H3           0.4990     0.0000     3.2290 ha         1 36N       0.168000
     13 H4          -1.5130    -0.0000     1.5670 h4         1 36N       0.175000
     14 H5           4.3110     0.0000    -1.4430 h4         1 36N       0.031100
@<TRIPOS>BOND
     1     9     8 ar  
     2     9     2 ar  
     3     8     4 ar  
     4     1     2 1   
     5     1     6 1   
     6     2     3 ar  
     7     4     7 ar  
     8     6     5 2   
     9     3     7 ar  
    10     3     5 1   
    11     1    10 1   
    12     4    11 1   
    13     5    12 1   
    14     6    13 1   
    15     8    14 1   
@<TRIPOS>SUBSTRUCTURE
     1 36N         1 TEMP              0 ****  ****    0 ROOT
