@<TRIPOS>MOLECULE
36O
   31    33     1     0     0
SMALL
bcc


@<TRIPOS>ATOM
      1 C4           0.0000     0.0000     0.0000 ca         1 36O       0.251800
      2 C5           1.4060     0.0000     0.0000 ca         1 36O      -0.246200
      3 C7           2.0690     0.0000     1.2390 ca         1 36O       0.608200
      4 C13          5.5210    -0.6110     2.4530 c3         1 36O      -0.038900
      5 C15          6.3490     0.8250     4.3230 c3         1 36O      -0.027400
      6 C17          4.2490     1.4360     3.1130 c3         1 36O      -0.038900
      7 C1           0.7600     0.0040    -2.0700 cc         1 36O       0.214700
      8 N2          -0.3780     0.0060    -1.3190 na         1 36O       0.177000
      9 N6           1.8050     0.0010    -1.2940 nd         1 36O      -0.489100
     10 N8           1.3380    -0.0010     2.3490 nb         1 36O      -0.748000
     11 C9           0.0180    -0.0010     2.2980 ca         1 36O       0.693900
     12 N10         -0.6450    -0.0010     1.1610 nb         1 36O      -0.686000
     13 N11          3.4510    -0.0010     1.3020 nu         1 36O      -0.460900
     14 C12          4.1250    -0.0010     2.6020 c3         1 36O       0.124500
     15 C14          6.2250    -0.6110     3.8110 c3         1 36O      -0.017900
     16 C16          4.9530     1.4340     4.4720 c3         1 36O      -0.017900
     17 H2           6.0980    -0.0230     1.7490 hc         1 36O       0.020950
     18 H3           6.9230     1.4110     3.6150 hc         1 36O       0.014200
     19 H4           6.8450     0.8230     5.2860 hc         1 36O       0.014200
     20 H5           3.2600     1.8660     3.2210 hc         1 36O       0.020950
     21 H6           4.8280     2.0200     2.4090 hc         1 36O       0.020950
     22 H7           0.7890     0.0050    -3.1530 h5         1 36O       0.030800
     23 H8          -1.3160     0.0080    -1.6660 hn         1 36O       0.132700
     24 H10         -0.5390    -0.0020     3.2270 h5         1 36O      -0.005900
     25 H11          3.9900    -0.0180     0.4590 hn         1 36O       0.307800
     26 H12          3.5520    -0.5860     3.3110 h1         1 36O       0.060700
     27 H13          7.2140    -1.0410     3.7040 hc         1 36O       0.015700
     28 H14          5.6470    -1.1960     4.5160 hc         1 36O       0.015700
     29 H15          4.3760     0.8450     5.1750 hc         1 36O       0.015700
     30 H16          5.0410     2.4520     4.8320 hc         1 36O       0.015700
     31 H1           5.4330    -1.6290     2.0940 hc         1 36O       0.020950
@<TRIPOS>BOND
     1     1     2 ar  
     2     1     8 1   
     3     1    12 ar  
     4     2     3 ar  
     5     2     9 1   
     6     3    10 ar  
     7     3    13 1   
     8     4    14 1   
     9     4    15 1   
    10     4    17 1   
    11     4    31 1   
    12     5    15 1   
    13     5    16 1   
    14     5    18 1   
    15     5    19 1   
    16     6    14 1   
    17     6    16 1   
    18     6    20 1   
    19     6    21 1   
    20     7     8 1   
    21     7     9 2   
    22     7    22 1   
    23     8    23 1   
    24    10    11 ar  
    25    11    12 ar  
    26    11    24 1   
    27    13    14 1   
    28    13    25 1   
    29    14    26 1   
    30    15    27 1   
    31    15    28 1   
    32    16    29 1   
    33    16    30 1   
@<TRIPOS>SUBSTRUCTURE
     1 36O         1 TEMP              0 ****  ****    0 ROOT
