@<TRIPOS>MOLECULE
molecule
   31    33     1     0     0
SMALL
bcc


@<TRIPOS>ATOM
      1 C4           0.0000     0.0000     0.0000 ca         1 36O       0.471800
      2 C5           1.4060     0.0000     0.0000 ca         1 36O      -0.215200
      3 C7           2.0690     0.0000     1.2390 ca         1 36O       0.789200
      4 C13          5.5210    -0.6110     2.4530 c3         1 36O      -0.094400
      5 C15          6.3490     0.8250     4.3230 c3         1 36O      -0.083400
      6 C17          4.2490     1.4360     3.1130 c3         1 36O      -0.094400
      7 C1           0.7600     0.0040    -2.0700 cc         1 36O       0.407700
      8 N2          -0.3780     0.0060    -1.3190 na         1 36O      -0.359000
      9 N6           1.8050     0.0010    -1.2940 nd         1 36O      -0.582100
     10 N8           1.3380    -0.0010     2.3490 nb         1 36O      -0.837000
     11 C9           0.0180    -0.0010     2.2980 ca         1 36O       0.743900
     12 N10         -0.6450    -0.0010     1.1610 nb         1 36O      -0.801000
     13 N11          3.4510    -0.0010     1.3020 nu         1 36O      -0.885900
     14 C12          4.1250    -0.0010     2.6020 c3         1 36O       0.240500
     15 C14          6.2250    -0.6110     3.8110 c3         1 36O      -0.076900
     16 C16          4.9530     1.4340     4.4720 c3         1 36O      -0.076900
     17 H2           6.0980    -0.0230     1.7490 hc         1 36O       0.048700
     18 H3           6.9230     1.4110     3.6150 hc         1 36O       0.042200
     19 H4           6.8450     0.8230     5.2860 hc         1 36O       0.042200
     20 H5           3.2600     1.8660     3.2210 hc         1 36O       0.048700
     21 H6           4.8280     2.0200     2.4090 hc         1 36O       0.048700
     22 H7           0.7890     0.0050    -3.1530 h5         1 36O       0.078800
     23 H8          -1.3160     0.0080    -1.6660 hn         1 36O       0.313700
     24 H10         -0.5390    -0.0020     3.2270 h5         1 36O       0.060100
     25 H11          3.9900    -0.0180     0.4590 hn         1 36O       0.461800
     26 H12          3.5520    -0.5860     3.3110 h1         1 36O       0.081700
     27 H13          7.2140    -1.0410     3.7040 hc         1 36O       0.044200
     28 H14          5.6470    -1.1960     4.5160 hc         1 36O       0.044200
     29 H15          4.3760     0.8450     5.1750 hc         1 36O       0.044200
     30 H16          5.0410     2.4520     4.8320 hc         1 36O       0.044200
     31 H1           5.4330    -1.6290     2.0940 hc         1 36O       0.048700
@<TRIPOS>BOND
     1    15     4 1   
     2    15     5 1   
     3     4    14 1   
     4     5    16 1   
     5    14    13 1   
     6    14     6 1   
     7    13     3 1   
     8    16     6 1   
     9     9     7 2   
    10     9     2 1   
    11     3     2 ar  
    12     3    10 ar  
    13     7     8 1   
    14     2     1 ar  
    15    10    11 ar  
    16     8     1 1   
    17     1    12 ar  
    18    11    12 ar  
    19     4    31 1   
    20     4    17 1   
    21     5    18 1   
    22     5    19 1   
    23     6    20 1   
    24     6    21 1   
    25     7    22 1   
    26     8    23 1   
    27    11    24 1   
    28    13    25 1   
    29    14    26 1   
    30    15    27 1   
    31    15    28 1   
    32    16    29 1   
    33    16    30 1   
@<TRIPOS>SUBSTRUCTURE
     1 36O         1 TEMP              0 ****  ****    0 ROOT
