@<TRIPOS>MOLECULE
molecule
   33    36     1     0     0
SMALL
bcc


@<TRIPOS>ATOM
      1 CAO          0.0000     0.0000     0.0000 c3         1 36P       0.110000
      2 CAS          1.5380     0.0000     0.0000 c3         1 36P      -0.050100
      3 CAN          1.9190     0.0000     1.4630 ca         1 36P      -0.139300
      4 CAM          3.1570     0.0010     2.0760 ca         1 36P      -0.093000
      5 CAL          3.2480     0.0030     3.4560 ca         1 36P      -0.153000
      6 CAB          2.0960     0.0030     4.2210 ca         1 36P      -0.108000
      7 CAC          0.8600     0.0020     3.6140 ca         1 36P      -0.138000
      8 CAD          0.7590     0.0010     2.2200 ca         1 36P       0.061600
      9 NAE         -0.3830     0.0010     1.4150 n          1 36P      -0.357000
     10 CAF         -1.6510     0.0020     1.8720 c          1 36P       0.611600
     11 OAA         -1.8680    -0.0910     3.0660 o          1 36P      -0.596100
     12 CAG         -2.7740     0.1150     0.9270 cc         1 36P       0.309800
     13 NAH         -2.6000     0.1200    -0.3900 nc         1 36P      -0.674000
     14 CAP         -4.0580     0.2170     1.3360 cd         1 36P      -0.144400
     15 SAQ         -5.0760     0.3280    -0.0340 ss         1 36P      -0.163300
     16 CAI         -3.6810     0.2250    -1.1030 cd         1 36P       0.535900
     17 CAJ         -3.7310     0.2530    -2.5790 cd         1 36P      -0.166500
     18 CAK         -4.9120     0.4700    -3.2940 cd         1 36P      -0.142000
     19 CAR         -4.7480     0.4570    -4.6150 cc         1 36P      -0.085100
     20 SAU         -3.0600     0.1640    -5.0030 ss         1 36P      -0.084800
     21 CAT         -2.6430     0.0760    -3.3520 cc         1 36P      -0.066100
     22 HAO1        -0.3630    -0.9040    -0.4740 h1         1 36P       0.065200
     23 HAS1         1.9030     0.9040    -0.4720 hc         1 36P       0.060700
     24 HAO2        -0.3630     0.9030    -0.4750 h1         1 36P       0.065200
     25 HAS2         1.9030    -0.9040    -0.4720 hc         1 36P       0.060700
     26 HAM          4.0580     0.0010     1.4750 ha         1 36P       0.128000
     27 HAL          4.2190     0.0040     3.9370 ha         1 36P       0.130000
     28 HAB          2.1660     0.0050     5.3030 ha         1 36P       0.133000
     29 HAC         -0.0390     0.0020     4.2190 ha         1 36P       0.165000
     30 HAP         -4.3890     0.2280     2.3670 h4         1 36P       0.204000
     31 HAK         -5.8710     0.6340    -2.8180 ha         1 36P       0.155000
     32 HAT         -1.6420    -0.1030    -2.9770 h4         1 36P       0.187000
     33 HAR         -5.5380     0.6040    -5.3420 h4         1 36P       0.176000
@<TRIPOS>BOND
     1     1     2 1   
     2     1     9 1   
     3     2     3 1   
     4     3     4 ar  
     5     3     8 ar  
     6     4     5 ar  
     7     5     6 ar  
     8     6     7 ar  
     9     7     8 ar  
    10     8     9 1   
    11     9    10 1   
    12    10    11 2   
    13    10    12 1   
    14    12    13 1   
    15    12    14 2   
    16    13    16 2   
    17    14    15 1   
    18    15    16 1   
    19    16    17 1   
    20    17    18 1   
    21    17    21 2   
    22    18    19 2   
    23    19    20 1   
    24    20    21 1   
    25     1    22 1   
    26     1    24 1   
    27     2    23 1   
    28     2    25 1   
    29     4    26 1   
    30     5    27 1   
    31     6    28 1   
    32     7    29 1   
    33    14    30 1   
    34    18    31 1   
    35    21    32 1   
    36    19    33 1   
@<TRIPOS>SUBSTRUCTURE
     1 36P         1 TEMP              0 ****  ****    0 ROOT
