@<TRIPOS>MOLECULE
36Q
   35    37     1     0     0
SMALL
bcc


@<TRIPOS>ATOM
      1 C4           0.0000     0.0000     0.0000 ca         1 36Q      -0.098300
      2 C5           1.3820     0.0000     0.0000 ca         1 36Q      -0.096500
      3 C6           2.0730     0.0000     1.1970 ca         1 36Q      -0.096500
      4 C7          -0.7530     0.0000    -1.3050 c3         1 36Q       0.020900
      5 C8          -1.0080    -1.4420    -1.7480 c3         1 36Q       0.124500
      6 C10         -1.8790    -1.4440    -3.0050 c3         1 36Q       0.201400
      7 N12          0.2700    -2.0960    -2.0380 nu         1 36Q      -0.448900
      8 C13          0.3790    -3.4730    -1.9510 ca         1 36Q       0.609200
      9 C15          1.6470    -5.5180    -2.1160 ca         1 36Q       0.251800
     10 C21         -0.5720    -5.5310    -1.5190 ca         1 36Q       0.694900
     11 C1           1.3830    -0.0020     2.3940 ca         1 36Q      -0.103000
     12 C2           0.0000    -0.0020     2.3940 ca         1 36Q      -0.096500
     13 C3          -0.6910    -0.0070     1.1970 ca         1 36Q      -0.096500
     14 O11         -1.2630    -0.6390    -4.0130 oh         1 36Q      -0.599800
     15 C14          1.5990    -4.1170    -2.2200 ca         1 36Q      -0.244200
     16 N16          2.9330    -5.8760    -2.4340 na         1 36Q       0.177000
     17 C18          3.6210    -4.7320    -2.7050 cc         1 36Q       0.213700
     18 N19          2.8360    -3.7010    -2.5840 nd         1 36Q      -0.487100
     19 N20          0.5470    -6.1770    -1.7690 nb         1 36Q      -0.688000
     20 N22         -0.6670    -4.2170    -1.6050 nb         1 36Q      -0.757000
     21 H1           1.9240     0.0020    -0.9380 ha         1 36Q       0.106500
     22 H2           3.1570     0.0000     1.1970 ha         1 36Q       0.102500
     23 H3          -1.7000     0.5100    -1.1750 hc         1 36Q       0.033700
     24 H4          -0.1680     0.5120    -2.0600 hc         1 36Q       0.033700
     25 H5          -1.5160    -1.9790    -0.9560 h1         1 36Q       0.065700
     26 H6          -1.9860    -2.4590    -3.3690 h1         1 36Q      -0.000300
     27 H7          -2.8560    -1.0410    -2.7680 h1         1 36Q      -0.000300
     28 H8           1.0530    -1.5520    -2.3430 hn         1 36Q       0.315800
     29 H9          -1.4490    -6.1000    -1.2330 h5         1 36Q      -0.006900
     30 H10          1.9240    -0.0010     3.3320 ha         1 36Q       0.102000
     31 H11         -0.5420    -0.0060     3.3330 ha         1 36Q       0.102500
     32 H12         -1.7740    -0.0070     1.1960 ha         1 36Q       0.106500
     33 H13         -1.8060    -0.6310    -4.7840 ho         1 36Q       0.394000
     34 H14          3.3000    -6.8070    -2.4540 hn         1 36Q       0.131700
     35 H15          4.6680    -4.6870    -2.9810 h5         1 36Q       0.030800
@<TRIPOS>BOND
     1     1     2 ar  
     2     1     4 1   
     3     1    13 ar  
     4     2     3 ar  
     5     2    21 1   
     6     3    11 ar  
     7     3    22 1   
     8     4     5 1   
     9     4    23 1   
    10     4    24 1   
    11     5     6 1   
    12     5     7 1   
    13     5    25 1   
    14     6    14 1   
    15     6    26 1   
    16     6    27 1   
    17     7     8 1   
    18     7    28 1   
    19     8    15 ar  
    20     8    20 ar  
    21     9    15 ar  
    22     9    16 1   
    23     9    19 ar  
    24    10    19 ar  
    25    10    20 ar  
    26    10    29 1   
    27    11    12 ar  
    28    11    30 1   
    29    12    13 ar  
    30    12    31 1   
    31    13    32 1   
    32    14    33 1   
    33    15    18 1   
    34    16    17 1   
    35    16    34 1   
    36    17    18 2   
    37    17    35 1   
@<TRIPOS>SUBSTRUCTURE
     1 36Q         1 TEMP              0 ****  ****    0 ROOT
