@<TRIPOS>MOLECULE
molecule
   35    37     1     0     0
SMALL
bcc


@<TRIPOS>ATOM
      1 C4           0.0000     0.0000     0.0000 ca         1 36Q      -0.086300
      2 C5           1.3820     0.0000     0.0000 ca         1 36Q      -0.121000
      3 C6           2.0730     0.0000     1.1970 ca         1 36Q      -0.124500
      4 C7          -0.7530     0.0000    -1.3050 c3         1 36Q      -0.046100
      5 C8          -1.0080    -1.4420    -1.7480 c3         1 36Q       0.251500
      6 C10         -1.8790    -1.4440    -3.0050 c3         1 36Q       0.118400
      7 N12          0.2700    -2.0960    -2.0380 nu         1 36Q      -0.872900
      8 C13          0.3790    -3.4730    -1.9510 ca         1 36Q       0.790200
      9 C15          1.6470    -5.5180    -2.1160 ca         1 36Q       0.471800
     10 C21         -0.5720    -5.5310    -1.5190 ca         1 36Q       0.743900
     11 C1           1.3830    -0.0020     2.3940 ca         1 36Q      -0.130000
     12 C2           0.0000    -0.0020     2.3940 ca         1 36Q      -0.124500
     13 C3          -0.6910    -0.0070     1.1970 ca         1 36Q      -0.121000
     14 O11         -1.2630    -0.6390    -4.0130 oh         1 36Q      -0.615800
     15 C14          1.5990    -4.1170    -2.2200 ca         1 36Q      -0.212200
     16 N16          2.9330    -5.8760    -2.4340 na         1 36Q      -0.359000
     17 C18          3.6210    -4.7320    -2.7050 cc         1 36Q       0.407700
     18 N19          2.8360    -3.7010    -2.5840 nd         1 36Q      -0.580100
     19 N20          0.5470    -6.1770    -1.7690 nb         1 36Q      -0.801000
     20 N22         -0.6670    -4.2170    -1.6050 nb         1 36Q      -0.845000
     21 H1           1.9240     0.0020    -0.9380 ha         1 36Q       0.129000
     22 H2           3.1570     0.0000     1.1970 ha         1 36Q       0.129000
     23 H3          -1.7000     0.5100    -1.1750 hc         1 36Q       0.064700
     24 H4          -0.1680     0.5120    -2.0600 hc         1 36Q       0.064700
     25 H5          -1.5160    -1.9790    -0.9560 h1         1 36Q       0.090700
     26 H6          -1.9860    -2.4590    -3.3690 h1         1 36Q       0.034200
     27 H7          -2.8560    -1.0410    -2.7680 h1         1 36Q       0.034200
     28 H8           1.0530    -1.5520    -2.3430 hn         1 36Q       0.469800
     29 H9          -1.4490    -6.1000    -1.2330 h5         1 36Q       0.059100
     30 H10          1.9240    -0.0010     3.3320 ha         1 36Q       0.128000
     31 H11         -0.5420    -0.0060     3.3330 ha         1 36Q       0.129000
     32 H12         -1.7740    -0.0070     1.1960 ha         1 36Q       0.129000
     33 H13         -1.8060    -0.6310    -4.7840 ho         1 36Q       0.404000
     34 H14          3.3000    -6.8070    -2.4540 hn         1 36Q       0.312700
     35 H15          4.6680    -4.6870    -2.9810 h5         1 36Q       0.077800
@<TRIPOS>BOND
     1    12    13 ar  
     2    12    11 ar  
     3    13     1 ar  
     4    11     3 ar  
     5     1     4 1   
     6     1     2 ar  
     7     4     5 1   
     8     3     2 ar  
     9    14     6 1   
    10    18    17 2   
    11    18    15 1   
    12     7     5 1   
    13     7     8 1   
    14     5     6 1   
    15    17    16 1   
    16    15     8 ar  
    17    15     9 ar  
    18     8    20 ar  
    19    16     9 1   
    20     9    19 ar  
    21    20    10 ar  
    22    19    10 ar  
    23     2    21 1   
    24     3    22 1   
    25     4    23 1   
    26     4    24 1   
    27     5    25 1   
    28     6    26 1   
    29     6    27 1   
    30     7    28 1   
    31    10    29 1   
    32    11    30 1   
    33    12    31 1   
    34    13    32 1   
    35    14    33 1   
    36    16    34 1   
    37    17    35 1   
@<TRIPOS>SUBSTRUCTURE
     1 36Q         1 TEMP              0 ****  ****    0 ROOT
