@<TRIPOS>MOLECULE
36R
   16    17     1     0     0
SMALL
bcc


@<TRIPOS>ATOM
      1 C4          0.0500   -0.0900   -0.0610 ca        1 36R      0.098400
      2 C5          1.4450   -0.1430   -0.0420 ca        1 36R     -0.082000
      3 C6          2.0710   -0.0450    1.2060 ca        1 36R      0.011400
      4 C1          1.3570    0.1000    2.4060 ca        1 36R     -0.123000
      5 C2         -0.0380    0.1550    2.4120 ca        1 36R     -0.097000
      6 C3         -0.6620    0.0600    1.1800 ca        1 36R      0.019100
      7 CL7         3.7720   -0.1050    1.2710 cl        1 36R     -0.092400
      8 N8         -0.8770   -0.1560   -1.1230 nc        1 36R     -0.611100
      9 C9         -2.0850   -0.0590   -0.5320 cd        1 36R      0.733500
     10 O10        -2.0290    0.0900    0.9010 os        1 36R     -0.329700
     11 N11        -3.3580   -0.1610   -1.0500 nh        1 36R     -0.868800
     12 H1          2.0220   -0.2590   -0.9700 ha        1 36R      0.167000
     13 H2          1.9020    0.1710    3.3610 ha        1 36R      0.152000
     14 H3         -0.6080    0.2670    3.3440 ha        1 36R      0.156000
     15 H4         -3.4390    0.0330   -2.0230 hn        1 36R      0.433800
     16 H5         -4.0790    0.1990   -0.4660 hn        1 36R      0.433800
@<TRIPOS>BOND
     1    1    2 ar
     2    1    6 ar
     3    1    8 1
     4    2    3 ar
     5    2   12 1
     6    3    4 ar
     7    3    7 1
     8    4    5 ar
     9    4   13 1
    10    5    6 ar
    11    5   14 1
    12    6   10 1
    13    8    9 2
    14    9   10 1
    15    9   11 1
    16   11   15 1
    17   11   16 1
@<TRIPOS>SUBSTRUCTURE
     1 36R         1 TEMP              0 ****  ****    0 ROOT
