@<TRIPOS>MOLECULE
36S
   56    59     1     0     0
SMALL
bcc


@<TRIPOS>ATOM
      1 CAB          0.0000     0.0000     0.0000 c3         1 36S       0.240700
      2 OAS          1.4290     0.0000     0.0000 os         1 36S      -0.291900
      3 CAV          2.0460     0.0000     1.2100 ca         1 36S       0.176100
      4 CAF          1.2940    -0.0040     2.3740 ca         1 36S      -0.213000
      5 CAD          1.9220    -0.0100     3.6050 ca         1 36S      -0.047000
      6 CAE          3.3040    -0.0100     3.6850 ca         1 36S      -0.147000
      7 CAG          4.0670    -0.0050     2.5360 ca         1 36S      -0.050000
      8 CAW          3.4440     0.0000     1.2880 ca         1 36S      -0.075800
      9 CAX          4.2560    -0.0010     0.0520 cc         1 36S      -0.166300
     10 NAR          5.0890    -1.0210    -0.3500 na         1 36S       0.370600
     11 CAU          4.2900     1.0000    -0.8630 cd         1 36S      -0.078800
     12 Cl           3.4050     2.4930    -0.7960 cl         1 36S      -0.000400
     13 CAZ          5.2160     0.5850    -1.9160 ca         1 36S      -0.090800
     14 CAJ          5.6610     1.1750    -3.1020 ca         1 36S      -0.037000
     15 CAY          5.6880    -0.6890    -1.5460 ca         1 36S      -0.225200
     16 CAI          6.5960    -1.3460    -2.3710 ca         1 36S      -0.102000
     17 CAH          7.0240    -0.7430    -3.5340 ca         1 36S      -0.081000
     18 CAT          6.5550     0.5140    -3.8950 ca         1 36S      -0.114300
     19 CBA          7.0340     1.1510    -5.1740 c3         1 36S       0.011600
     20 CAM          8.5540     1.3250    -5.1210 c3         1 36S      -0.025400
     21 CAP          9.0420     1.9150    -6.4460 c3         1 36S       0.149800
     22 CAL          6.6710     0.2530    -6.3600 c3         1 36S      -0.025400
     23 CAO          7.2140     0.8750    -7.6490 c3         1 36S       0.149800
     24 NBB          8.6720     1.0200    -7.5490 n3         1 36S      -0.538600
     25 CAN          9.2430     1.4850    -8.8200 c3         1 36S       0.152800
     26 C1          10.7690     1.3870    -8.7590 c3         1 36S       0.130800
     27 H1          -0.3610     0.8830     0.5130 h1         1 36S      -0.000967
     28 H2          -0.3610     0.0020    -1.0210 h1         1 36S      -0.000967
     29 H3          -0.3610    -0.8860     0.5090 h1         1 36S      -0.000967
     30 H4           0.2120    -0.0040     2.3180 ha         1 36S       0.123000
     31 H5           1.3300    -0.0130     4.5120 ha         1 36S       0.101000
     32 H6           3.7880    -0.0140     4.6540 ha         1 36S       0.107000
     33 H7           5.1480    -0.0050     2.6020 ha         1 36S       0.107000
     34 H8           5.2360    -1.8750     0.1500 hn         1 36S       0.116700
     35 H9           5.3000     2.1550    -3.3900 ha         1 36S       0.108000
     36 H10          6.9670    -2.3260    -2.0990 ha         1 36S       0.100000
     37 H11          7.7320    -1.2550    -4.1740 ha         1 36S       0.112000
     38 H12          6.5650     2.1190    -5.3000 hc         1 36S       0.028700
     39 H13          9.0220     0.3610    -4.9620 hc         1 36S       0.024700
     40 H14          8.8120     1.9960    -4.3110 hc         1 36S       0.024700
     41 H15          8.5810     2.8840    -6.5990 h1         1 36S       0.009450
     42 H16         10.1200     2.0230    -6.4170 h1         1 36S       0.009450
     43 H17          5.5940     0.1640    -6.4280 hc         1 36S       0.024700
     44 H18          7.1120    -0.7270    -6.2190 hc         1 36S       0.024700
     45 H19          6.7650     1.8500    -7.7950 h1         1 36S       0.009450
     46 H20          6.9740     0.2320    -8.4870 h1         1 36S       0.009450
     47 H22          8.8730     0.8690    -9.6300 h1         1 36S       0.012200
     48 H23          8.9540     2.5160    -8.9890 h1         1 36S       0.012200
     49 H24         11.0570     0.3560    -8.5880 h1         1 36S       0.015700
     50 H25         11.1390     2.0040    -7.9490 h1         1 36S       0.015700
     51 N1          11.3400     1.8510   -10.0300 n7         1 36S      -0.584200
     52 C3          12.8070     1.7710   -10.0080 c3         1 36S       0.180100
     53 H21         11.0610     2.7980   -10.1950 hn         1 36S       0.247800
     54 H26         13.1930     2.4230    -9.2340 h1         1 36S      -0.002300
     55 H27         13.1100     0.7510    -9.8040 h1         1 36S      -0.002300
     56 H28         13.2000     2.0790   -10.9690 h1         1 36S      -0.002300
@<TRIPOS>BOND
     1     1     2 1   
     2     1    27 1   
     3     1    28 1   
     4     1    29 1   
     5     2     3 1   
     6     3     4 ar  
     7     3     8 ar  
     8     4     5 ar  
     9     4    30 1   
    10     5     6 ar  
    11     5    31 1   
    12     6     7 ar  
    13     6    32 1   
    14     7     8 ar  
    15     7    33 1   
    16     8     9 1   
    17     9    10 1   
    18     9    11 2   
    19    10    15 1   
    20    10    34 1   
    21    11    12 1   
    22    11    13 1   
    23    13    14 ar  
    24    13    15 ar  
    25    14    18 ar  
    26    14    35 1   
    27    15    16 ar  
    28    16    17 ar  
    29    16    36 1   
    30    17    18 ar  
    31    17    37 1   
    32    18    19 1   
    33    19    20 1   
    34    19    22 1   
    35    19    38 1   
    36    20    21 1   
    37    20    39 1   
    38    20    40 1   
    39    21    24 1   
    40    21    41 1   
    41    21    42 1   
    42    22    23 1   
    43    22    43 1   
    44    22    44 1   
    45    23    24 1   
    46    23    45 1   
    47    23    46 1   
    48    24    25 1   
    49    25    26 1   
    50    25    47 1   
    51    25    48 1   
    52    26    49 1   
    53    26    50 1   
    54    26    51 1   
    55    51    52 1   
    56    51    53 1   
    57    52    54 1   
    58    52    55 1   
    59    52    56 1   
@<TRIPOS>SUBSTRUCTURE
     1 36S         1 TEMP              0 ****  ****    0 ROOT
