@<TRIPOS>MOLECULE
36U
   37    38     1     0     0
SMALL
bcc


@<TRIPOS>ATOM
      1 C4          0.4640   -1.7320    0.7950 c2        1 36U     -0.500000
      2 C14         2.0410    0.0660    1.7080 c3        1 36U     -0.171000
      3 C6         -0.1080   -1.3980   -1.8460 c2        1 36U     -0.247000
      4 C11        -0.4970   -0.6670   -2.9470 c2        1 36U     -0.150000
      5 C7          0.2730   -2.8220   -2.0230 c3        1 36U     -0.140000
      6 C8          0.2370   -3.3200   -3.4170 c2        1 36U     -0.098000
      7 C9         -0.1510   -2.5390   -4.4490 c2        1 36U     -0.188000
      8 C10        -0.5510   -1.1750   -4.2680 c1        1 36U     -0.054000
      9 C13         1.7470   -1.3910    1.4570 c2        1 36U      0.292000
     10 C3         -0.0280    1.3240    2.1680 c2        1 36U     -0.183000
     11 C2         -0.1720   -2.8380    1.2590 c2        1 36U      0.108000
     12 S5         -0.0840   -0.6270   -0.3660 ss        1 36U      0.504000
     13 CL1        -0.9460    0.9640   -2.7210 cl        1 36U     -0.008000
     14 C15         1.0740    0.7230    2.6340 c2        1 36U     -0.105000
     15 C16         1.3680    0.7420    4.1010 c3        1 36U     -0.001000
     16 C17         2.8340    0.9920    4.4300 c2        1 36U     -0.089000
     17 CL2         3.3710    2.5710    4.1110 cl        1 36U      0.002000
     18 C19         3.6840    0.0710    4.9540 c2        1 36U     -0.132000
     19 C20         3.2120   -1.3190    4.9780 c2        1 36U     -0.044000
     20 C21         1.8870   -1.3660    5.0630 c1        1 36U     -0.170000
     21 C22         0.9130   -0.4900    4.8690 c2        1 36U     -0.064000
     22 CL3        -0.6250   -0.5300    5.5380 cl        1 36U      0.024000
     23 O2          2.5570   -2.2750    1.7640 o         1 36U     -0.297000
     24 H1          2.0240    0.5920    0.7120 hc        1 36U      0.128000
     25 H2          3.0850    0.1510    2.1190 hc        1 36U      0.128000
     26 H3          1.3120   -2.9810   -1.6110 hc        1 36U      0.140000
     27 H4         -0.4280   -3.4590   -1.4040 hc        1 36U      0.140000
     28 H5          0.5430   -4.3700   -3.5500 ha        1 36U      0.130000
     29 H6         -0.1750   -2.9260   -5.4810 ha        1 36U      0.149000
     30 H7          0.2430   -3.4440    2.0870 h4        1 36U      0.162000
     31 H8         -0.7440    1.8410    2.8210 ha        1 36U      0.129000
     32 H9         -1.6870   -3.9890    1.2310 ho        1 36U      0.239000
     33 H10        -0.2840    1.3320    1.0960 ha        1 36U      0.129000
     34 H11         0.7900    1.6010    4.5670 hc        1 36U      0.146000
     35 H12         4.7190    0.2960    5.2400 ha        1 36U      0.160000
     36 H13         3.9020   -2.1500    4.8040 ha        1 36U      0.174000
     37 O1         -1.3410   -3.2560    0.6970 oh        1 36U     -0.241000
@<TRIPOS>BOND
     1    1    9 1   
     2    1   11 1   
     3    1   12 1   
     4    2    9 1   
     5    2   14 1   
     6    2   24 1   
     7    2   25 1   
     8    3    4 1   
     9    3    5 1   
    10    3   12 1   
    11    4    8 1   
    12    4   13 1   
    13    5    6 1   
    14    5   26 1   
    15    5   27 1   
    16    6    7 1   
    17    6   28 1   
    18    7    8 1   
    19    7   29 1   
    20    9   23 1   
    21   10   14 1   
    22   10   31 1   
    23   10   33 1   
    24   11   30 1   
    25   11   37 1   
    26   14   15 1   
    27   15   16 1   
    28   15   21 1   
    29   15   34 1   
    30   16   17 1   
    31   16   18 1   
    32   18   19 1   
    33   18   35 1   
    34   19   20 1   
    35   19   36 1   
    36   20   21 1   
    37   21   22 1   
    38   32   37 1   
@<TRIPOS>SUBSTRUCTURE
     1 36U         1 TEMP              0 ****  ****    0 ROOT
