@<TRIPOS>MOLECULE
molecule
   37    39     1     0     0
SMALL
bcc


@<TRIPOS>ATOM
      1 C4           0.0000     0.0000     0.0000 ce         1 36U      -0.181600
      2 C14          2.1720     0.0000     1.2980 c3         1 36U      -0.184400
      3 C6          -0.4680    -1.5800    -2.2110 ca         1 36U       0.041900
      4 C11         -0.8620    -1.9050    -3.5050 ca         1 36U       0.036400
      5 C7           0.2390    -2.5060    -1.4520 ca         1 36U      -0.124000
      6 C8           0.5490    -3.7410    -1.9850 ca         1 36U      -0.111000
      7 C9           0.1560    -4.0600    -3.2720 ca         1 36U      -0.132000
      8 C10         -0.5480    -3.1430    -4.0310 ca         1 36U      -0.107000
      9 C13          1.4080     0.0000     0.0000 c          1 36U       0.575300
     10 C3          -0.0180     0.0180     2.4870 c3         1 36U      -0.093200
     11 C2          -0.7070     0.0060     1.1490 c2         1 36U       0.196900
     12 S5          -0.8590    -0.0000    -1.5380 ss         1 36U      -0.133500
     13 Cl1         -1.7460    -0.7540    -4.4590 cl         1 36U      -0.100400
     14 C15          1.3320    -0.6960     2.3740 c3         1 36U      -0.021400
     15 C16          2.0500    -0.6290     3.6970 ca         1 36U      -0.070300
     16 C17          2.3530     0.5980     4.2600 ca         1 36U       0.036400
     17 Cl2          1.9040     2.0620     3.4420 cl         1 36U      -0.089400
     18 C19          3.0120     0.6580     5.4740 ca         1 36U      -0.113500
     19 C20          3.3690    -0.5070     6.1250 ca         1 36U      -0.110000
     20 C21          3.0680    -1.7340     5.5640 ca         1 36U      -0.113500
     21 C22          2.4040    -1.7950     4.3520 ca         1 36U       0.036400
     22 Cl3          2.0180    -3.3350     3.6510 cl         1 36U      -0.089400
     23 O2           2.0100    -0.0020    -1.0550 o          1 36U      -0.506100
     24 H1           3.1060    -0.5340     1.1680 hc         1 36U       0.086700
     25 H2           2.3720     1.0210     1.6000 hc         1 36U       0.086700
     26 H3           0.5470    -2.2570    -0.4430 ha         1 36U       0.135000
     27 H4           1.1000    -4.4620    -1.3930 ha         1 36U       0.132000
     28 H5           0.4010    -5.0300    -3.6870 ha         1 36U       0.134000
     29 H6          -0.8540    -3.3960    -5.0390 ha         1 36U       0.144000
     30 H7          -0.6360    -0.4940     3.2140 hc         1 36U       0.083200
     31 H8           0.1420     1.0430     2.8000 hc         1 36U       0.083200
     32 H9          -2.3780     0.8740     1.2430 ho         1 36U       0.441000
     33 H10          1.1720    -1.7300     2.0950 hc         1 36U       0.084700
     34 H11          3.2480     1.6200     5.9140 ha         1 36U       0.151500
     35 H12          3.8870    -0.4590     7.0750 ha         1 36U       0.147000
     36 H13          3.3470    -2.6470     6.0760 ha         1 36U       0.151500
     37 O1          -2.0550     0.0010     1.0980 oh         1 36U      -0.507100
@<TRIPOS>BOND
     1    37    11 1   
     2    12     1 1   
     3    12     3 1   
     4    17    16 1   
     5    11     1 2   
     6    11    10 1   
     7    13     4 1   
     8     1     9 1   
     9    10    14 1   
    10     9    23 2   
    11     9     2 1   
    12     3     4 ar  
    13     3     5 ar  
    14     4     8 ar  
    15     2    14 1   
    16    16    18 ar  
    17    16    15 ar  
    18    14    15 1   
    19     5     6 ar  
    20    18    19 ar  
    21    15    21 ar  
    22     8     7 ar  
    23     6     7 ar  
    24    19    20 ar  
    25    21    20 ar  
    26    21    22 1   
    27     2    24 1   
    28     2    25 1   
    29     5    26 1   
    30     6    27 1   
    31     7    28 1   
    32     8    29 1   
    33    10    30 1   
    34    10    31 1   
    35    37    32 1   
    36    14    33 1   
    37    18    34 1   
    38    19    35 1   
    39    20    36 1   
@<TRIPOS>SUBSTRUCTURE
     1 36U         1 TEMP              0 ****  ****    0 ROOT
