@<TRIPOS>MOLECULE
36V
   39    41     1     0     0
SMALL
bcc


@<TRIPOS>ATOM
      1 C4           0.0000     0.0000     0.0000 ca         1 36V      -0.101300
      2 C14         -1.6340     1.2430    -1.3910 c3         1 36V      -0.119400
      3 C5           1.3820     0.0000     0.0000 ca         1 36V      -0.094500
      4 C6           2.0730     0.0000     1.1970 ca         1 36V      -0.094000
      5 C11         -3.2610    -0.0170    -2.9740 c3         1 36V      -0.198600
      6 C7          -0.7540    -0.0070    -1.3060 c3         1 36V       0.029600
      7 C8          -1.6300    -1.2600    -1.3820 c3         1 36V      -0.119400
      8 C9          -2.4130    -1.2370    -2.6760 c          1 36V       0.616100
      9 C12         -2.4160     1.2060    -2.6850 c          1 36V       0.616100
     10 C3          -0.6910    -0.0010     1.1970 ca         1 36V      -0.094500
     11 C1           1.3830     0.0000     2.3940 ca         1 36V      -0.095000
     12 C2          -0.0000    -0.0020     2.3950 ca         1 36V      -0.094000
     13 O10         -2.3600    -2.1630    -3.4500 o          1 36V      -0.503600
     14 O13         -2.3680     2.1250    -3.4660 o          1 36V      -0.503600
     15 S15         -3.7610    -0.0260    -4.7180 ss         1 36V      -0.160000
     16 C16         -4.8430     1.3600    -4.8280 ca         1 36V       0.147900
     17 C17         -5.0970     2.1360    -3.7030 ca         1 36V      -0.147000
     18 C18         -5.9450     3.2210    -3.7920 ca         1 36V      -0.021000
     19 C19         -6.5430     3.5370    -4.9990 ca         1 36V      -0.130000
     20 C20         -6.2930     2.7660    -6.1200 ca         1 36V       0.006000
     21 C21         -5.4400     1.6830    -6.0400 ca         1 36V      -0.433200
     22 N22         -5.1690     0.8640    -7.2420 no         1 36V       1.041200
     23 O23         -5.6920     1.1480    -8.3040 o          1 36V      -0.434500
     24 O24         -4.4210    -0.0950    -7.1680 o          1 36V      -0.434500
     25 H2          -1.0090     2.1270    -1.3720 hc         1 36V       0.047200
     26 H3           1.9230     0.0000    -0.9380 ha         1 36V       0.106500
     27 H4           3.1560     0.0010     1.1970 ha         1 36V       0.105500
     28 H5          -4.1360    -0.0160    -2.3350 h1         1 36V       0.085700
     29 H6          -0.0530    -0.0090    -2.1320 hc         1 36V       0.044700
     30 H7          -2.3180    -1.2720    -0.5450 hc         1 36V       0.047200
     31 H8          -1.0030    -2.1430    -1.3550 hc         1 36V       0.047200
     32 H9          -1.7740    -0.0020     1.1970 ha         1 36V       0.106500
     33 H10          1.9250    -0.0000     3.3320 ha         1 36V       0.105000
     34 H11         -0.5420    -0.0020     3.3330 ha         1 36V       0.105500
     35 H12         -4.6290     1.8900    -2.7570 ha         1 36V       0.118000
     36 H13         -6.1430     3.8270    -2.9160 ha         1 36V       0.105000
     37 H14         -7.2110     4.3870    -5.0660 ha         1 36V       0.116000
     38 H15         -6.7600     3.0180    -7.0640 ha         1 36V       0.133000
     39 H1          -2.3210     1.2590    -0.5540 hc         1 36V       0.047200
@<TRIPOS>BOND
     1     1     3 ar  
     2     1     6 1   
     3     1    10 ar  
     4     2     6 1   
     5     2     9 1   
     6     2    25 1   
     7     2    39 1   
     8     3     4 ar  
     9     3    26 1   
    10     4    11 ar  
    11     4    27 1   
    12     5     8 1   
    13     5     9 1   
    14     5    15 1   
    15     5    28 1   
    16     6     7 1   
    17     6    29 1   
    18     7     8 1   
    19     7    30 1   
    20     7    31 1   
    21     8    13 2   
    22     9    14 2   
    23    10    12 ar  
    24    10    32 1   
    25    11    12 ar  
    26    11    33 1   
    27    12    34 1   
    28    15    16 1   
    29    16    17 ar  
    30    16    21 ar  
    31    17    18 ar  
    32    17    35 1   
    33    18    19 ar  
    34    18    36 1   
    35    19    20 ar  
    36    19    37 1   
    37    20    21 ar  
    38    20    38 1   
    39    21    22 1   
    40    22    23 1   
    41    22    24 1   
@<TRIPOS>SUBSTRUCTURE
     1 36V         1 TEMP              0 ****  ****    0 ROOT
