@<TRIPOS>MOLECULE
molecule
   30    32     1     0     0
SMALL
bcc


@<TRIPOS>ATOM
      1 N1           0.0000     0.0000     0.0000 n2         1 36X      -1.135100
      2 C6           1.3220     0.0000     0.0000 cc         1 36X       0.779900
      3 C5           2.1420     0.0000     1.2290 cc         1 36X      -0.300300
      4 C4           1.6790    -0.1690     2.6460 c3         1 36X      -0.013200
      5 C3           2.9600    -0.5070     3.4450 c3         1 36X      -0.082400
      6 C2           4.0660     0.1210     2.5650 c3         1 36X      -0.042700
      7 C1           3.4860     0.1630     1.1750 cd         1 36X       0.096800
      8 C7           2.1430    -0.0060    -1.2290 cc         1 36X      -0.300300
      9 C11          3.4860     0.1570    -1.1770 cd         1 36X       0.096800
     10 N            4.1750     0.3410    -0.0000 na         1 36X      -0.476200
     11 C            5.5930     0.7050    -0.0000 c3         1 36X       0.210100
     12 C10          4.0660     0.1040    -2.5660 c3         1 36X      -0.042700
     13 C9           2.8620     0.3100    -3.5140 c3         1 36X      -0.082400
     14 C8           1.6780    -0.1790    -2.6450 c3         1 36X      -0.013200
     15 H1          -0.5000     0.8670     0.0180 hn         1 36X       0.481400
     16 H3           1.2410     0.7530     3.0100 hc         1 36X       0.061950
     17 H4           2.9360    -0.0420     4.4230 hc         1 36X       0.052450
     18 H5           4.9540    -0.4980     2.5810 hc         1 36X       0.053950
     19 H6           6.1930    -0.1810    -0.1740 h1         1 36X       0.051367
     20 H7           5.7800     1.4280    -0.7850 h1         1 36X       0.051367
     21 H9           4.7890     0.9000    -2.7010 hc         1 36X       0.053950
     22 H10          4.5220    -0.8620    -2.7450 hc         1 36X       0.053950
     23 H11          2.7460     1.3570    -3.7670 hc         1 36X       0.052450
     24 H12          2.9640    -0.3000    -4.4030 hc         1 36X       0.052450
     25 H13          0.8000     0.4300    -2.8290 hc         1 36X       0.061950
     26 H14          1.4700    -1.2230    -2.8480 hc         1 36X       0.061950
     27 H16          0.9680    -0.9830     2.7130 hc         1 36X       0.061950
     28 H17          3.0930    -1.5800     3.5220 hc         1 36X       0.052450
     29 H18          4.2920     1.1240     2.9060 hc         1 36X       0.053950
     30 H2           5.8550     1.1360     0.9590 h1         1 36X       0.051367
@<TRIPOS>BOND
     1     1     2 2
     2     2     3 1
     3     2     8 1
     4     4     3 1
     5     4     5 1
     6    14     8 1
     7    14    13 1
     8     3     7 2
     9     8     9 2
    10     5     6 1
    11    13    12 1
    12     7     6 1
    13     7    10 1
    14     9    10 1
    15     9    12 1
    16    10    11 1
    17     1    15 1
    18     4    16 1
    19     5    17 1
    20     6    18 1
    21    11    19 1
    22    11    20 1
    23    12    21 1
    24    12    22 1
    25    13    23 1
    26    13    24 1
    27    14    25 1
    28    14    26 1
    29     4    27 1
    30     5    28 1
    31     6    29 1
    32    11    30 1
@<TRIPOS>SUBSTRUCTURE
     1 36X         1 TEMP              0 ****  ****    0 ROOT
