@<TRIPOS>MOLECULE
36Y
   19    20     1     0     0
SMALL
bcc


@<TRIPOS>ATOM
      1 C2         -0.0010    0.0030   -0.0200 cc        1 36Y      0.392400
      2 C5          0.6400    0.0040    2.1290 cc        1 36Y     -0.232600
      3 C4          1.7730   -0.0010    1.2790 cd        1 36Y      0.345800
      4 C6          3.1620   -0.0050    1.6920 ca        1 36Y     -0.083500
      5 C7          4.1990   -0.0100    0.7460 ca        1 36Y     -0.118500
      6 C8          5.5300   -0.0140    1.1570 ca        1 36Y     -0.106000
      7 C9          5.8460   -0.0130    2.5180 ca        1 36Y     -0.029900
      8 C10         4.8200   -0.0090    3.4680 ca        1 36Y     -0.106000
      9 BR          7.6360   -0.0190    3.0700 br        1 36Y     -0.094100
     10 C11         3.4900   -0.0040    3.0570 ca        1 36Y     -0.118500
     11 N3          1.3450   -0.0010   -0.0610 nd        1 36Y     -0.655000
     12 N1         -0.4750    0.0060    1.2990 na        1 36Y     -0.320900
     13 H1         -0.6660    0.0040   -0.8900 h5        1 36Y      0.064100
     14 H2          0.5600    0.0050    3.2140 h4        1 36Y      0.180000
     15 H3          3.9670   -0.0110   -0.3310 ha        1 36Y      0.144500
     16 H4          6.3290   -0.0180    0.3990 ha        1 36Y      0.145000
     17 H5          5.0550   -0.0080    4.5430 ha        1 36Y      0.145000
     18 H6          2.6940   -0.0010    3.8160 ha        1 36Y      0.144500
     19 H7         -1.4170    0.0090    1.5880 hn        1 36Y      0.303700
@<TRIPOS>BOND
     1    1   11 2   
     2    1   12 1   
     3    1   13 1   
     4    2    3 2   
     5    2   12 1   
     6    2   14 1   
     7    3    4 1   
     8    3   11 1   
     9    4    5 ar  
    10    4   10 ar  
    11    5    6 ar  
    12    5   15 1   
    13    6    7 ar  
    14    6   16 1   
    15    7    8 ar  
    16    7    9 1   
    17    8   10 ar  
    18    8   17 1   
    19   10   18 1   
    20   12   19 1   
@<TRIPOS>SUBSTRUCTURE
     1 36Y         1 TEMP              0 ****  ****    0 ROOT
