@<TRIPOS>MOLECULE
molecule
   19    20     1     0     0
SMALL
bcc


@<TRIPOS>ATOM
      1 C2           0.0000     0.0000     0.0000 cc         1 36Y       0.400400
      2 C5           0.6600     0.0030     2.0890 cd         1 36Y      -0.255600
      3 C4           1.7470     0.0000     1.2730 cc         1 36Y       0.363800
      4 C6           3.1660    -0.0050     1.7050 ca         1 36Y      -0.084500
      5 C7           4.1860    -0.0090     0.7560 ca         1 36Y      -0.114500
      6 C8           5.5040    -0.0140     1.1640 ca         1 36Y      -0.104500
      7 C9           5.8150    -0.0150     2.5120 ca         1 36Y      -0.021900
      8 C10          4.8060    -0.0110     3.4600 ca         1 36Y      -0.104500
      9 Br           7.6230    -0.0220     3.0640 br         1 36Y      -0.102100
     10 C11          3.4840    -0.0000     3.0620 ca         1 36Y      -0.114500
     11 N3           1.3030     0.0000     0.0000 nc         1 36Y      -0.689000
     12 N1          -0.4400     0.0060     1.2780 na         1 36Y      -0.295900
     13 H1          -0.6290     0.0000    -0.8820 h5         1 36Y       0.067100
     14 H2           0.6650     0.0070     3.1720 h4         1 36Y       0.178000
     15 H3           3.9450    -0.0080    -0.3000 ha         1 36Y       0.145000
     16 H4           6.2980    -0.0170     0.4270 ha         1 36Y       0.143000
     17 H5           5.0530    -0.0100     4.5150 ha         1 36Y       0.143000
     18 H6           2.6950     0.0030     3.8040 ha         1 36Y       0.145000
     19 H7          -1.3950     0.0090     1.5760 hn         1 36Y       0.300700
@<TRIPOS>BOND
     1     9     7 1   
     2     7     6 ar  
     3     7     8 ar  
     4     6     5 ar  
     5     8    10 ar  
     6     5     4 ar  
     7    10     4 ar  
     8     4     3 1   
     9     3     2 2   
    10     3    11 1   
    11     2    12 1   
    12    11     1 2   
    13    12     1 1   
    14     1    13 1   
    15     2    14 1   
    16     5    15 1   
    17     6    16 1   
    18     8    17 1   
    19    10    18 1   
    20    12    19 1   
@<TRIPOS>SUBSTRUCTURE
     1 36Y         1 TEMP              0 ****  ****    0 ROOT
