@<TRIPOS>MOLECULE
36Z
   32    33     1     0     0
SMALL
bcc


@<TRIPOS>ATOM
      1 CAF         0.0620   -0.6820    0.0680 c3        1 36Z     -0.145400
      2 CAE         1.4520   -0.2550   -0.0810 cc        1 36Z      0.289000
      3 OAA         2.1850   -0.0540    1.1100 os        1 36Z     -0.117100
      4 NAB         3.4190    0.3130    0.8290 nc        1 36Z     -0.364300
      5 CAC         3.5740    0.3830   -0.5090 cd        1 36Z      0.338600
      6 CAG         4.8190    0.7450   -1.2110 c3        1 36Z     -0.136400
      7 CAD         2.2970    0.0210   -1.1470 cd        1 36Z     -0.283600
      8 CAH         2.0020   -0.0420   -2.5570 ca        1 36Z      0.022000
      9 CAM         1.1510   -1.0440   -3.0450 ca        1 36Z     -0.114000
     10 CAI         2.5430    0.8980   -3.4400 ca        1 36Z     -0.154000
     11 CAJ         2.2600    0.8410   -4.8230 ca        1 36Z      0.127600
     12 NAR         2.8830    1.7220   -5.7140 nh        1 36Z     -0.817200
     13 CAK         1.4000   -0.1750   -5.3000 ca        1 36Z     -0.135000
     14 CAL         0.8580   -1.1010   -4.4100 ca        1 36Z     -0.092600
     15 CAN        -0.0460   -2.1640   -4.8790 c         1 36Z      0.643700
     16 OAO        -0.6340   -3.0130   -4.2030 o         1 36Z     -0.542000
     17 OAP        -0.2400   -2.1870   -6.2370 os        1 36Z     -0.438900
     18 CAQ        -1.1030   -3.2080   -6.7380 c3        1 36Z      0.127700
     19 H1          0.0110   -1.8000    0.1160 hc        1 36Z      0.070700
     20 H2         -0.5390   -0.3340   -0.8090 hc        1 36Z      0.070700
     21 H3         -0.3800   -0.2680    1.0090 hc        1 36Z      0.070700
     22 H4          4.8560    1.8530   -1.3710 hc        1 36Z      0.060700
     23 H5          5.7220    0.4450   -0.6230 hc        1 36Z      0.060700
     24 H6          4.8520    0.2360   -2.2070 hc        1 36Z      0.060700
     25 H7          0.7150   -1.7900   -2.3600 ha        1 36Z      0.158000
     26 H8          3.1980    1.6910   -3.0430 ha        1 36Z      0.142000
     27 H9          2.4100    1.8300   -6.5840 hn        1 36Z      0.392800
     28 H10         3.1640    2.5870   -5.3080 hn        1 36Z      0.392800
     29 H11         1.1570   -0.2490   -6.3730 ha        1 36Z      0.157000
     30 H12        -2.1250   -3.0900   -6.3050 h1        1 36Z      0.051700
     31 H13        -1.1010   -3.0350   -7.8420 h1        1 36Z      0.051700
     32 H14        -0.6930   -4.2140   -6.4800 h1        1 36Z      0.051700
@<TRIPOS>BOND
     1    1    2 1
     2    1   19 1
     3    1   20 1
     4    1   21 1
     5    2    3 1
     6    2    7 2
     7    3    4 1
     8    4    5 2
     9    5    6 1
    10    5    7 1
    11    6   22 1
    12    6   23 1
    13    6   24 1
    14    7    8 1
    15    8    9 ar
    16    8   10 ar
    17    9   14 ar
    18    9   25 1
    19   10   11 ar
    20   10   26 1
    21   11   12 1
    22   11   13 ar
    23   12   27 1
    24   12   28 1
    25   13   14 ar
    26   13   29 1
    27   14   15 1
    28   15   16 2
    29   15   17 1
    30   17   18 1
    31   18   30 1
    32   18   31 1
    33   18   32 1
@<TRIPOS>SUBSTRUCTURE
     1 36Z         1 TEMP              0 ****  ****    0 ROOT
