@<TRIPOS>MOLECULE
370
   52    56     1     0     0
SMALL
bcc


@<TRIPOS>ATOM
      1 C           0.6150   -0.9340   -1.0490 c3        1 370     -0.126400
      2 N           2.0440   -1.1290    3.9130 nc        1 370     -0.360000
      3 O           0.3040   -1.8950    2.7250 os        1 370     -0.390800
      4 S          -1.8610   -3.9770    3.6140 ss        1 370      0.088500
      5 C1          1.9400   -0.5090   -0.5630 cc        1 370      0.328600
      6 N1          1.6460   -2.2500    4.4930 nc        1 370     -0.331000
      7 O1          1.5640   -5.3900    4.7600 os        1 370     -0.307900
      8 C2          2.2160    0.0060    0.7680 cc        1 370     -0.279600
      9 N2          3.9030   -5.9890    8.1810 n3        1 370     -0.821200
     10 C3          1.2380    0.2150    1.8410 c3        1 370     -0.009400
     11 N3          4.0600   -0.0690   -0.4980 na        1 370     -0.016600
     12 C4          1.2630   -0.8770    2.8450 cd        1 370      0.464700
     13 N4          3.0950   -0.5340   -1.2900 nd        1 370     -0.513800
     14 C5          0.5950   -2.7530    3.8080 cd        1 370      0.550200
     15 C6         -0.2060   -3.9230    3.9910 cd        1 370     -0.197200
     16 C7          0.2470   -5.1280    4.5030 cc        1 370      0.168900
     17 C8          1.8610   -5.7530    6.1330 c3        1 370      0.144100
     18 C9          2.9340   -6.8330    6.0530 c3        1 370     -0.092900
     19 C10         3.4540   -7.1580    7.4520 c3        1 370      0.165800
     20 C11         2.9300   -4.9160    8.2340 c3        1 370      0.165800
     21 C12         2.3830   -4.5240    6.8630 c3        1 370     -0.092900
     22 C13        -0.8120   -6.1110    4.5910 ca        1 370     -0.115800
     23 C14        -0.7500   -7.4440    5.0240 ca        1 370     -0.077000
     24 C15        -1.9020   -8.2110    5.0140 ca        1 370     -0.138000
     25 C16        -3.1230   -7.6670    4.5720 ca        1 370     -0.107000
     26 C17        -3.1990   -6.3580    4.1290 ca        1 370     -0.103000
     27 C18        -2.0420   -5.5670    4.1280 ca        1 370     -0.068100
     28 C19         3.5990    0.2760    0.7790 cd        1 370     -0.061600
     29 C20         4.4520    0.8060    1.8530 c3        1 370     -0.044800
     30 H          -0.0460   -0.0390   -1.1710 hc        1 370      0.052700
     31 HA          0.6790   -1.4650   -2.0300 hc        1 370      0.052700
     32 HB          0.1470   -1.6220   -0.2990 hc        1 370      0.052700
     33 H3          1.4460    1.1850    2.3740 hc        1 370      0.079200
     34 H3A         0.2020    0.2680    1.4010 hc        1 370      0.079200
     35 H8          0.9380   -6.1500    6.6360 h1        1 370      0.049700
     36 H9          3.7700   -6.4720    5.3990 hc        1 370      0.067950
     37 H9A         2.5120   -7.7610    5.5930 hc        1 370      0.067950
     38 H10         2.6420   -7.7170    8.0070 h1        1 370      0.028450
     39 H10A        4.3370   -7.8520    7.3560 h1        1 370      0.028450
     40 H11         3.4450   -4.0210    8.6850 h1        1 370      0.028450
     41 H11A        2.0540   -5.1750    8.9010 h1        1 370      0.028450
     42 H12         3.1830   -4.0400    6.2450 hc        1 370      0.067950
     43 H12A        1.5610   -3.7770    6.9960 hc        1 370      0.067950
     44 H14         0.2130   -7.8630    5.3530 ha        1 370      0.143000
     45 H15        -1.8700   -9.2580    5.3490 ha        1 370      0.137000
     46 H16        -4.0250   -8.2980    4.5770 ha        1 370      0.137000
     47 H17        -4.1520   -5.9380    3.7770 ha        1 370      0.141000
     48 H20         5.3140    0.1220    2.0550 hc        1 370      0.061367
     49 H20A        3.8510    0.9020    2.7920 hc        1 370      0.061367
     50 H20B        4.8550    1.8140    1.5780 hc        1 370      0.061367
     51 HN3         4.9970   -0.0270   -0.8210 hn        1 370      0.321700
     52 HN2         4.1780   -6.2490    9.1090 hn        1 370      0.363800
@<TRIPOS>BOND
     1    1    5 1   
     2    1   30 1   
     3    1   31 1   
     4    1   32 1   
     5    2    6 1   
     6    2   12 2   
     7    3   12 1   
     8    3   14 1   
     9    4   15 1   
    10    4   27 1   
    11    5    8 1   
    12    5   13 2   
    13    6   14 2   
    14    7   16 1   
    15    7   17 1   
    16    8   10 1   
    17    8   28 2   
    18    9   19 1   
    19    9   20 1   
    20    9   52 1   
    21   10   12 1   
    22   10   33 1   
    23   10   34 1   
    24   11   13 1   
    25   11   28 1   
    26   11   51 1   
    27   14   15 1   
    28   15   16 2   
    29   16   22 1   
    30   17   18 1   
    31   17   21 1   
    32   17   35 1   
    33   18   19 1   
    34   18   36 1   
    35   18   37 1   
    36   19   38 1   
    37   19   39 1   
    38   20   21 1   
    39   20   40 1   
    40   20   41 1   
    41   21   42 1   
    42   21   43 1   
    43   22   23 ar  
    44   22   27 ar  
    45   23   24 ar  
    46   23   44 1   
    47   24   25 ar  
    48   24   45 1   
    49   25   26 ar  
    50   25   46 1   
    51   26   27 ar  
    52   26   47 1   
    53   28   29 1   
    54   29   48 1   
    55   29   49 1   
    56   29   50 1   
@<TRIPOS>SUBSTRUCTURE
     1 370         1 TEMP              0 ****  ****    0 ROOT
