@<TRIPOS>MOLECULE
371
   45    48     1     0     0
SMALL
bcc


@<TRIPOS>ATOM
      1 O1         -0.0900   -0.0470    0.1030 os        1 371     -0.212200
      2 C1          1.2750   -0.3110    0.0390 cc        1 371      0.148900
      3 C2          2.0070   -0.5630    1.1610 cd        1 371     -0.071100
      4 C3          1.4120   -0.5660    2.5060 c         1 371      0.573900
      5 C4         -0.7180   -0.2820    3.7540 ca        1 371     -0.051000
      6 C5         -2.0840   -0.0270    3.7820 ca        1 371     -0.092300
      7 C6         -2.7720    0.2160    2.5840 ca        1 371     -0.104000
      8 C7         -2.1130    0.2300    1.3420 ca        1 371      0.130600
      9 C8         -0.7090   -0.0400    1.3370 ca        1 371      0.144100
     10 C9         -0.0250   -0.2950    2.5350 ca        1 371     -0.205600
     11 O2          2.1070   -0.7820    3.5120 o         1 371     -0.553100
     12 C10         1.7420   -0.2740   -1.3450 ca        1 371     -0.056800
     13 C11         2.8670   -1.0130   -1.7360 ca        1 371     -0.084000
     14 C12         3.3120   -0.9740   -3.0550 ca        1 371     -0.181000
     15 C13         2.6290   -0.2000   -3.9960 ca        1 371      0.061100
     16 C14         1.4910    0.5430   -3.6120 ca        1 371      0.099100
     17 C15         1.0520    0.5070   -2.2860 ca        1 371     -0.103000
     18 C16        -2.8320   -0.0090    5.0610 c3        1 371     -0.054800
     19 O3          3.3550   -0.8290    1.0490 oh        1 371     -0.491100
     20 O4          0.7660    1.3070   -4.4960 oh        1 371     -0.494100
     21 O5          2.9970   -0.1090   -5.3210 oh        1 371     -0.513100
     22 C17        -3.7960    0.0230   -2.0080 c3        1 371     -0.062400
     23 C18        -2.7430   -0.3810   -0.9580 c3        1 371      0.204800
     24 N1         -2.8320    0.5190    0.1710 nh        1 371     -0.675900
     25 S1         -3.8310    1.8070   -0.0380 s6        1 371      1.450900
     26 C19        -4.4090    1.3480   -1.6030 c3        1 371     -0.308600
     27 O7         -3.1430    3.0210   -0.1360 o         1 371     -0.648800
     28 O6         -4.8930    1.7870    0.8810 o         1 371     -0.648800
     29 H4         -0.1550   -0.4770    4.6830 ha        1 371      0.164000
     30 H6         -3.8600    0.4170    2.6300 ha        1 371      0.173000
     31 H11         3.4090   -1.6280   -0.9990 ha        1 371      0.164000
     32 H12         4.1990   -1.5500   -3.3550 ha        1 371      0.141000
     33 H15         0.1690    1.0960   -1.9920 ha        1 371      0.167000
     34 H161       -2.1610   -0.2380    5.9250 hc        1 371      0.052033
     35 H162       -3.6540   -0.7670    5.0410 hc        1 371      0.052033
     36 H163       -3.2900    0.9990    5.2260 hc        1 371      0.052033
     37 HO3         3.7160   -0.8580    1.9530 ho        1 371      0.445000
     38 HO4         1.2350    1.3050   -5.3460 ho        1 371      0.438000
     39 HO5         3.8200   -0.6060   -5.4360 ho        1 371      0.433000
     40 H172       -3.3100    0.0950   -3.0120 hc        1 371      0.067200
     41 H181       -2.9170   -1.4410   -0.6230 h1        1 371      0.065700
     42 H182       -1.7110   -0.3290   -1.4110 h1        1 371      0.065700
     43 H191       -4.1540    2.1330   -2.3630 h1        1 371      0.126200
     44 H192       -5.5260    1.2710   -1.6090 h1        1 371      0.126200
     45 H171       -4.5840   -0.7700   -2.0730 hc        1 371      0.067200
@<TRIPOS>BOND
     1    1    2 1   
     2    1    9 1   
     3    2    3 2   
     4    2   12 1   
     5    3    4 1   
     6    3   19 1   
     7    4   10 1   
     8    4   11 2   
     9    5    6 ar  
    10    5   10 ar  
    11    5   29 1   
    12    6    7 ar  
    13    6   18 1   
    14    7    8 ar  
    15    7   30 1   
    16    8    9 ar  
    17    8   24 1   
    18    9   10 ar  
    19   12   13 ar  
    20   12   17 ar  
    21   13   14 ar  
    22   13   31 1   
    23   14   15 ar  
    24   14   32 1   
    25   15   16 ar  
    26   15   21 1   
    27   16   17 ar  
    28   16   20 1   
    29   17   33 1   
    30   18   34 1   
    31   18   35 1   
    32   18   36 1   
    33   19   37 1   
    34   20   38 1   
    35   21   39 1   
    36   22   23 1   
    37   22   26 1   
    38   22   40 1   
    39   22   45 1   
    40   23   24 1   
    41   23   41 1   
    42   23   42 1   
    43   24   25 1   
    44   25   26 1   
    45   25   27 2   
    46   25   28 2   
    47   26   43 1   
    48   26   44 1   
@<TRIPOS>SUBSTRUCTURE
     1 371         1 TEMP              0 ****  ****    0 ROOT
