@<TRIPOS>MOLECULE
molecule
   31    32     1     0     0
SMALL
bcc


@<TRIPOS>ATOM
      1 N14         -0.8860     2.2750     0.9170 n1         1 372      -0.352800
      2 C13         -0.4910     1.2900     0.5140 c1         1 372       0.205700
      3 C12          0.0000     0.0000     0.0000 c3         1 372       0.010700
      4 C7           1.5300     0.0000     0.0000 c3         1 372      -0.104400
      5 C8           2.0610     0.0000     1.4170 c          1 372       0.709500
      6 O11          1.8740     0.8560     2.2560 o          1 372      -0.591500
      7 N9           2.7750    -1.1270     1.5720 n          1 372      -0.371000
      8 C10          3.4550    -1.4990     2.8160 c3         1 372       0.094300
      9 C2           2.0590    -1.2850    -0.5950 ca         1 372      -0.133300
     10 C1           1.9310    -1.8620    -1.8380 ca         1 372      -0.076000
     11 C3           2.7950    -1.9050     0.4120 ca         1 372       0.044600
     12 C4           3.4080    -3.1290     0.1470 ca         1 372      -0.136000
     13 C5           3.2820    -3.7120    -1.0960 ca         1 372      -0.128000
     14 C6           2.5450    -3.0810    -2.1010 ca         1 372       0.033600
     15 N15          2.4190    -3.6780    -3.3620 ns         1 372      -0.479100
     16 C16          2.3340    -2.9100    -4.4660 c          1 372       0.656100
     17 O17          2.4620    -1.7070    -4.3780 o          1 372      -0.592100
     18 C18          2.0800    -3.5460    -5.8090 c3         1 372      -0.171100
     19 H1          -0.3610    -0.1470    -1.0110 hc         1 372       0.078200
     20 H2          -0.3610    -0.8020     0.6330 hc         1 372       0.078200
     21 H3           1.9140     0.8530    -0.5460 hc         1 372       0.108700
     22 H4           3.2950    -0.7280     3.5600 h1         1 372       0.052033
     23 H5           3.0560    -2.4390     3.1780 h1         1 372       0.052033
     24 H6           4.5170    -1.6060     2.6290 h1         1 372       0.052033
     25 H7           1.3570    -1.3650    -2.6110 ha         1 372       0.165000
     26 H8           3.9810    -3.6250     0.9200 ha         1 372       0.137000
     27 H9           3.7620    -4.6620    -1.2960 ha         1 372       0.136000
     28 H10          2.4140    -4.6750    -3.4440 hn         1 372       0.325500
     29 H11          1.2000    -4.1750    -5.7500 hc         1 372       0.065033
     30 H12          2.9360    -4.1470    -6.0910 hc         1 372       0.065033
     31 H13          1.9220    -2.7720    -6.5510 hc         1 372       0.065033
@<TRIPOS>BOND
     1     8     7 1   
     2    12    13 ar  
     3    12    11 ar  
     4    13    14 ar  
     5     7    11 1   
     6     7     5 1   
     7    11     9 ar  
     8    14    15 1   
     9    14    10 ar  
    10     5     6 2   
    11     5     4 1   
    12    15    16 1   
    13     9    10 ar  
    14     9     4 1   
    15     4     3 1   
    16     3     2 1   
    17    16    18 1   
    18    16    17 2   
    19     2     1 3   
    20     3    19 1   
    21     3    20 1   
    22     4    21 1   
    23     8    22 1   
    24     8    23 1   
    25     8    24 1   
    26    10    25 1   
    27    12    26 1   
    28    13    27 1   
    29    15    28 1   
    30    18    29 1   
    31    18    30 1   
    32    18    31 1   
@<TRIPOS>SUBSTRUCTURE
     1 372         1 TEMP              0 ****  ****    0 ROOT
