@<TRIPOS>MOLECULE
molecule
   47    49     1     0     0
SMALL
bcc


@<TRIPOS>ATOM
      1 C18          0.0000     0.0000     0.0000 ca         1 376      -0.050000
      2 C17          1.4030     0.0000     0.0000 ca         1 376      -0.121000
      3 C16          2.0770     0.0000     1.1840 ca         1 376      -0.122000
      4 C15          1.3940     0.0020     2.3980 ca         1 376      -0.125000
      5 C14          0.0330     0.0020     2.4350 ca         1 376      -0.114000
      6 C13         -0.6960     0.0010     1.2340 ca         1 376      -0.020000
      7 C12         -2.1020     0.0030     1.2360 ca         1 376      -0.135000
      8 C11         -2.7830     0.0030     0.0570 ca         1 376      -0.106000
      9 C10         -2.1110     0.0010    -1.1620 ca         1 376      -0.140000
     10 C9          -0.7330     0.0050    -1.2070 ca         1 376       0.053600
     11 N2          -0.0690     0.0100    -2.4320 ns         1 376      -0.438100
     12 C8          -0.6810     0.5020    -3.5280 c          1 376       0.596100
     13 O8          -1.7690     1.0310    -3.4300 o          1 376      -0.589100
     14 C7          -0.0200     0.3950    -4.8630 c          1 376       0.608100
     15 O7           1.0680    -0.1340    -4.9610 o          1 376      -0.590100
     16 N1          -0.6320     0.8870    -5.9580 ns         1 376      -0.536900
     17 C1           0.0160     0.7810    -7.2680 c3         1 376       0.316500
     18 O5           0.7310     1.9880    -7.5450 os         1 376      -0.417600
     19 C5           1.4250     1.9820    -8.7930 c3         1 376       0.153100
     20 C6           2.1730     3.3050    -8.9680 c3         1 376       0.152400
     21 O6           3.1910     3.4120    -7.9700 oh         1 376      -0.595800
     22 C4           0.4190     1.8100    -9.9340 c3         1 376       0.098100
     23 O4           1.1160     1.7460   -11.1800 oh         1 376      -0.599800
     24 C3          -0.3680     0.5130    -9.7200 c3         1 376       0.113100
     25 O3          -1.3600     0.3820   -10.7400 oh         1 376      -0.605800
     26 C2          -1.0460     0.5610    -8.3470 c3         1 376       0.099100
     27 O2          -1.7240    -0.6740    -8.1070 oh         1 376      -0.591800
     28 H17          1.9480    -0.0010    -0.9370 ha         1 376       0.129000
     29 H16          3.1610    -0.0000     1.1810 ha         1 376       0.130000
     30 H15          1.9540     0.0020     3.3250 ha         1 376       0.129000
     31 H14         -0.4850     0.0030     3.3870 ha         1 376       0.134000
     32 H12         -2.6430     0.0040     2.1750 ha         1 376       0.133000
     33 H11         -3.8660    -0.0000     0.0670 ha         1 376       0.133000
     34 H10         -2.6760     0.0010    -2.0860 ha         1 376       0.168000
     35 HN2          0.8490    -0.3800    -2.5050 hn         1 376       0.349500
     36 HN1         -1.5050     1.3690    -5.8700 hn         1 376       0.339500
     37 H1           0.7060    -0.0530    -7.2680 h2         1 376       0.093700
     38 H5           2.1300     1.1590    -8.8080 h1         1 376       0.069700
     39 H6           1.4780     4.1300    -8.8640 h1         1 376       0.036200
     40 H6A          2.6270     3.3370    -9.9510 h1         1 376       0.036200
     41 HO6          3.7650     4.1300    -8.1820 ho         1 376       0.403000
     42 H4          -0.2660     2.6500    -9.9390 h1         1 376       0.056700
     43 HO4          0.6780     2.2900   -11.8130 ho         1 376       0.414000
     44 H3           0.3110    -0.3300    -9.7570 h1         1 376       0.065700
     45 HO3         -1.1660    -0.3730   -11.2710 ho         1 376       0.417000
     46 H2          -1.7560     1.3790    -8.3250 h1         1 376       0.055700
     47 HO2         -2.6490    -0.5560    -8.2430 ho         1 376       0.415000
@<TRIPOS>BOND
     1     1     2 ar  
     2     1     6 ar  
     3     1    10 ar  
     4     2     3 ar  
     5     3     4 ar  
     6     4     5 ar  
     7     5     6 ar  
     8     6     7 ar  
     9     7     8 ar  
    10     8     9 ar  
    11     9    10 ar  
    12    10    11 1   
    13    11    12 1   
    14    12    13 2   
    15    12    14 1   
    16    14    15 2   
    17    14    16 1   
    18    16    17 1   
    19    17    18 1   
    20    17    26 1   
    21    18    19 1   
    22    19    20 1   
    23    19    22 1   
    24    20    21 1   
    25    22    23 1   
    26    22    24 1   
    27    24    25 1   
    28    24    26 1   
    29    26    27 1   
    30     2    28 1   
    31     3    29 1   
    32     4    30 1   
    33     5    31 1   
    34     7    32 1   
    35     8    33 1   
    36     9    34 1   
    37    11    35 1   
    38    16    36 1   
    39    17    37 1   
    40    19    38 1   
    41    20    39 1   
    42    20    40 1   
    43    21    41 1   
    44    22    42 1   
    45    23    43 1   
    46    24    44 1   
    47    25    45 1   
    48    26    46 1   
    49    27    47 1   
@<TRIPOS>SUBSTRUCTURE
     1 376         1 TEMP              0 ****  ****    0 ROOT
