@<TRIPOS>MOLECULE
376
   47    49     1     0     0
SMALL
bcc


@<TRIPOS>ATOM
      1 C18          0.0000     0.0000     0.0000 ca         1 376      -0.043000
      2 C17          1.4030     0.0000     0.0000 ca         1 376      -0.104000
      3 C16          2.0770     0.0000     1.1840 ca         1 376      -0.091000
      4 C15          1.3940     0.0020     2.3980 ca         1 376      -0.101000
      5 C14          0.0330     0.0020     2.4350 ca         1 376      -0.084000
      6 C13         -0.6960     0.0010     1.2340 ca         1 376      -0.021000
      7 C12         -2.1020     0.0030     1.2360 ca         1 376      -0.103000
      8 C11         -2.7830     0.0030     0.0570 ca         1 376      -0.078000
      9 C10         -2.1110     0.0010    -1.1620 ca         1 376      -0.117000
     10 C9          -0.7330     0.0050    -1.2070 ca         1 376      -0.101400
     11 N2          -0.0690     0.0100    -2.4320 ns         1 376       0.027900
     12 C8          -0.6810     0.5020    -3.5280 c          1 376       0.487100
     13 O8          -1.7690     1.0310    -3.4300 o          1 376      -0.641100
     14 C7          -0.0200     0.3950    -4.8630 c          1 376       0.512100
     15 O7           1.0680    -0.1340    -4.9610 o          1 376      -0.642100
     16 N1          -0.6320     0.8870    -5.9580 ns         1 376      -0.125900
     17 C1           0.0160     0.7810    -7.2680 c3         1 376       0.214500
     18 O5           0.7310     1.9880    -7.5450 os         1 376      -0.397600
     19 C5           1.4250     1.9820    -8.7930 c3         1 376       0.173100
     20 C6           2.1730     3.3050    -8.9680 c3         1 376       0.225400
     21 O6           3.1910     3.4120    -7.9700 oh         1 376      -0.578800
     22 C4           0.4190     1.8100    -9.9340 c3         1 376       0.136100
     23 O4           1.1160     1.7460   -11.1800 oh         1 376      -0.580800
     24 C3          -0.3680     0.5130    -9.7200 c3         1 376       0.150100
     25 O3          -1.3600     0.3820   -10.7400 oh         1 376      -0.587800
     26 C2          -1.0460     0.5610    -8.3470 c3         1 376       0.133100
     27 O2          -1.7240    -0.6740    -8.1070 oh         1 376      -0.576800
     28 H17          1.9480    -0.0010    -0.9370 ha         1 376       0.106000
     29 H16          3.1610    -0.0000     1.1810 ha         1 376       0.102000
     30 H15          1.9540     0.0020     3.3250 ha         1 376       0.102000
     31 H14         -0.4850     0.0030     3.3870 ha         1 376       0.106000
     32 H12         -2.6430     0.0040     2.1750 ha         1 376       0.106000
     33 H11         -3.8660    -0.0000     0.0670 ha         1 376       0.102000
     34 H10         -2.6760     0.0010    -2.0860 ha         1 376       0.151000
     35 HN2          0.8490    -0.3800    -2.5050 hn         1 376       0.191500
     36 HN1         -1.5050     1.3690    -5.8700 hn         1 376       0.192500
     37 H1           0.7060    -0.0530    -7.2680 h2         1 376       0.061700
     38 H5           2.1300     1.1590    -8.8080 h1         1 376       0.035700
     39 H6           1.4780     4.1300    -8.8640 h1         1 376      -0.002800
     40 H6A          2.6270     3.3370    -9.9510 h1         1 376      -0.002800
     41 HO6          3.7650     4.1300    -8.1820 ho         1 376       0.388000
     42 H4          -0.2660     2.6500    -9.9390 h1         1 376       0.021700
     43 HO4          0.6780     2.2900   -11.8130 ho         1 376       0.399000
     44 H3           0.3110    -0.3300    -9.7570 h1         1 376       0.029700
     45 HO3         -1.1660    -0.3730   -11.2710 ho         1 376       0.403000
     46 H2          -1.7560     1.3790    -8.3250 h1         1 376       0.021700
     47 HO2         -2.6490    -0.5560    -8.2430 ho         1 376       0.402000
@<TRIPOS>BOND
     1     1     2 ar  
     2     1     6 ar  
     3     1    10 ar  
     4     2     3 ar  
     5     2    28 1   
     6     3     4 ar  
     7     3    29 1   
     8     4     5 ar  
     9     4    30 1   
    10     5     6 ar  
    11     5    31 1   
    12     6     7 ar  
    13     7     8 ar  
    14     7    32 1   
    15     8     9 ar  
    16     8    33 1   
    17     9    10 ar  
    18     9    34 1   
    19    10    11 1   
    20    11    12 1   
    21    11    35 1   
    22    12    13 2   
    23    12    14 1   
    24    14    15 2   
    25    14    16 1   
    26    16    17 1   
    27    16    36 1   
    28    17    18 1   
    29    17    26 1   
    30    17    37 1   
    31    18    19 1   
    32    19    20 1   
    33    19    22 1   
    34    19    38 1   
    35    20    21 1   
    36    20    39 1   
    37    20    40 1   
    38    21    41 1   
    39    22    23 1   
    40    22    24 1   
    41    22    42 1   
    42    23    43 1   
    43    24    25 1   
    44    24    26 1   
    45    24    44 1   
    46    25    45 1   
    47    26    27 1   
    48    26    46 1   
    49    27    47 1   
@<TRIPOS>SUBSTRUCTURE
     1 376         1 TEMP              0 ****  ****    0 ROOT
