@<TRIPOS>MOLECULE
molecule
   35    37     1     0     0
SMALL
bcc


@<TRIPOS>ATOM
      1 C10          0.0000     0.0000     0.0000 c3         1 377      -0.073400
      2 C11         -0.0000     1.2490     2.1640 c3         1 377      -0.085400
      3 N01          2.0200     1.2490     3.5480 nz         1 377      -0.806600
      4 C02          1.5310     2.4980    -0.0010 c3         1 377      -0.052500
      5 C03          1.5300     0.0000     0.0000 c3         1 377      -0.052500
      6 C04          1.5300     1.2490     2.1640 c3         1 377       0.106200
      7 C05         -0.5090     1.2490     0.7210 c3         1 377      -0.057700
      8 C06          2.0400     1.2490    -0.7220 c3         1 377      -0.067400
      9 C07          2.0410     2.4980     1.4420 c3         1 377      -0.079900
     10 C08          2.0400     0.0000     1.4420 c3         1 377      -0.079900
     11 C09          0.0000     2.4980    -0.0000 c3         1 377      -0.073400
     12 C12          2.0400     3.7470    -0.7220 c3         1 377      -0.084100
     13 C13          2.0390    -1.2500    -0.7220 c3         1 377      -0.084100
     14 H1          -0.3610    -0.8840     0.5110 hc         1 377       0.065450
     15 H2          -0.3610    -0.0000    -1.0210 hc         1 377       0.065450
     16 H3          -0.3610     0.3650     2.6740 hc         1 377       0.059700
     17 H4          -0.3610     2.1340     2.6740 hc         1 377       0.059700
     18 H5           3.0210     1.2490     3.5480 hn         1 377       0.449800
     19 H6           1.6870     2.0660     4.0200 hn         1 377       0.449800
     20 H8          -1.5930     1.2490     0.7210 hc         1 377       0.084700
     21 H9           3.1230     1.2490    -0.7230 hc         1 377       0.065200
     22 H10          1.6780     1.2490    -1.7430 hc         1 377       0.065200
     23 H11          3.1240     2.4980     1.4420 hc         1 377       0.060200
     24 H12          1.6800     3.3830     1.9520 hc         1 377       0.060200
     25 H13          3.1240     0.0000     1.4420 hc         1 377       0.060200
     26 H14          1.6800    -0.8850     1.9520 hc         1 377       0.060200
     27 H15         -0.3610     2.4990    -1.0210 hc         1 377       0.065450
     28 H16         -0.3600     3.3830     0.5110 hc         1 377       0.065450
     29 H17          3.1240     3.7470    -0.7220 hc         1 377       0.051033
     30 H18          1.6790     4.6320    -0.2110 hc         1 377       0.051033
     31 H19          1.6790     3.7470    -1.7430 hc         1 377       0.051033
     32 H20          1.6780    -1.2500    -1.7430 hc         1 377       0.051033
     33 H21          3.1230    -1.2510    -0.7220 hc         1 377       0.051033
     34 H22          1.6780    -2.1340    -0.2110 hc         1 377       0.051033
     35 H013         1.6710     0.4420     4.0260 hn         1 377       0.449800
@<TRIPOS>BOND
     1    12     4 1   
     2    11     4 1   
     3    11     7 1   
     4     4     9 1   
     5     4     8 1   
     6     7     2 1   
     7     7     1 1   
     8     9     6 1   
     9     2     6 1   
    10     8     5 1   
    11     1     5 1   
    12     6     3 1   
    13     6    10 1   
    14     5    10 1   
    15     5    13 1   
    16     1    14 1   
    17     1    15 1   
    18     2    16 1   
    19     2    17 1   
    20     3    18 1   
    21     3    19 1   
    22     7    20 1   
    23     8    21 1   
    24     8    22 1   
    25     9    23 1   
    26     9    24 1   
    27    10    25 1   
    28    10    26 1   
    29    11    27 1   
    30    11    28 1   
    31    12    29 1   
    32    12    30 1   
    33    12    31 1   
    34    13    32 1   
    35    13    33 1   
    36    13    34 1   
    37    35     3 1   
@<TRIPOS>SUBSTRUCTURE
     1 377         1 TEMP              0 ****  ****    0 ROOT
