@<TRIPOS>MOLECULE
379
   47    48     1     0     0
SMALL
bcc


@<TRIPOS>ATOM
      1 P11          0.0000     0.0000     0.0000 p5         1 379       0.303400
      2 C1           2.3330    -1.2490    -0.7200 c3         1 379       0.033600
      3 C3           1.8240     0.0000     0.0000 c3         1 379      -0.141700
      4 C6           1.8240    -1.2500    -2.1630 c3         1 379      -0.029100
      5 C8           2.3260    -2.4810    -2.8730 ca         1 379      -0.182600
      6 N10          2.3130     0.0000     1.3860 nz         1 379       0.114400
      7 C11         -0.6070     1.4890     0.8590 c3         1 379      -0.001600
      8 O12         -0.5360    -1.3140     0.7590 o          1 379      -0.541500
      9 C13         -2.1320     1.5540     0.7500 c3         1 379      -0.114700
     10 O13         -0.4920     0.0000    -1.3960 o          1 379      -0.541500
     11 C15         -2.5180     1.9800    -0.6420 c          1 379       0.981600
     12 C16         -2.6720     2.5670     1.7620 c3         1 379       0.050900
     13 C01          1.5860    -3.6480    -2.8580 ca         1 379       0.417200
     14 C17         -4.1790     2.5420     1.7410 ca         1 379      -0.051300
     15 N18          2.0190    -4.7300    -3.4770 nb         1 379      -0.590000
     16 C19          3.1640    -4.7420    -4.1300 ca         1 379       0.382200
     17 C20          3.9580    -3.6120    -4.1880 ca         1 379      -0.237300
     18 C21          3.5340    -2.4550    -3.5540 ca         1 379      -0.085000
     19 O23         -3.8140     2.1060    -0.9700 o          1 379      -0.885300
     20 O24         -1.6620     2.2080    -1.4640 o          1 379      -0.885300
     21 C36         -4.8670     1.6850     2.5800 ca         1 379      -0.051500
     22 C37         -6.2490     1.6630     2.5610 ca         1 379      -0.130500
     23 C38         -6.9430     2.4960     1.7040 ca         1 379      -0.127000
     24 C39         -6.2540     3.3530     0.8670 ca         1 379      -0.130500
     25 C40         -4.8720     3.3800     0.8890 ca         1 379      -0.051500
     26 H1           3.4160    -1.2500    -0.7200 hc         1 379       0.002200
     27 H2           1.9710    -2.1330    -0.2090 hc         1 379       0.002200
     28 H12          2.1850     0.8840    -0.5110 hx         1 379       0.085700
     29 H6           2.1850    -0.3660    -2.6740 hc         1 379       0.084700
     30 H7           0.7410    -1.2500    -2.1640 hc         1 379       0.084700
     31 H11          2.7890     0.8610     1.5710 hn         1 379       0.191800
     32 H13          1.5390    -0.0950     2.0130 hn         1 379       0.191800
     33 H16         -0.1750     2.3710     0.4020 hc         1 379      -0.001800
     34 H17         -0.3210     1.4460     1.9030 hc         1 379      -0.001800
     35 H18         -2.5510     0.5760     0.9580 hc         1 379       0.054700
     36 H19         -2.3200     2.3110     2.7540 hc         1 379      -0.012300
     37 H20         -2.3240     3.5590     1.5010 hc         1 379      -0.012300
     38 H8           0.6390    -3.6750    -2.3310 h4         1 379       0.009100
     39 H10          3.4880    -5.6500    -4.6250 h4         1 379      -0.031900
     40 H14          4.8970    -3.6290    -4.7280 ha         1 379       0.101000
     41 H15          4.1350    -1.5550    -3.5820 ha         1 379       0.103000
     42 H21         -4.3240     1.0320     3.2510 ha         1 379       0.106000
     43 H22         -6.7880     0.9910     3.2180 ha         1 379       0.081500
     44 H25         -8.0260     2.4770     1.6880 ha         1 379       0.077000
     45 H23         -6.7980     4.0090     0.1970 ha         1 379       0.081500
     46 H24         -4.3330     4.0520     0.2320 ha         1 379       0.106000
     47 H103         2.9310    -0.7750     1.5210 hn         1 379       0.191800
@<TRIPOS>BOND
     1     1     3 1   
     2     1     7 1   
     3     1     8 1   
     4     1    10 1   
     5     2     3 1   
     6     2     4 1   
     7     2    26 1   
     8     2    27 1   
     9     3     6 1   
    10     3    28 1   
    11     4     5 1   
    12     4    29 1   
    13     4    30 1   
    14     5    13 ar  
    15     5    18 ar  
    16     6    31 1   
    17     6    32 1   
    18     6    47 1   
    19     7     9 1   
    20     7    33 1   
    21     7    34 1   
    22     9    11 1   
    23     9    12 1   
    24     9    35 1   
    25    11    19 1   
    26    11    20 1   
    27    12    14 1   
    28    12    36 1   
    29    12    37 1   
    30    13    15 ar  
    31    13    38 1   
    32    14    21 ar  
    33    14    25 ar  
    34    15    16 ar  
    35    16    17 ar  
    36    16    39 1   
    37    17    18 ar  
    38    17    40 1   
    39    18    41 1   
    40    21    22 ar  
    41    21    42 1   
    42    22    23 ar  
    43    22    43 1   
    44    23    24 ar  
    45    23    44 1   
    46    24    25 ar  
    47    24    45 1   
    48    25    46 1   
@<TRIPOS>SUBSTRUCTURE
     1 379         1 TEMP              0 ****  ****    0 ROOT
