@<TRIPOS>MOLECULE
molecule
   47    48     1     0     0
SMALL
bcc


@<TRIPOS>ATOM
      1 P11          0.0000     0.0000     0.0000 p5         1 379       0.844400
      2 C1           2.3330    -1.2490    -0.7200 c3         1 379      -0.065400
      3 C3           1.8240     0.0000     0.0000 c3         1 379      -0.048700
      4 C6           1.8240    -1.2500    -2.1630 c3         1 379      -0.059100
      5 C8           2.3260    -2.4810    -2.8730 ca         1 379      -0.191600
      6 N10          2.3130     0.0000     1.3860 nz         1 379      -0.776600
      7 C11         -0.6070     1.4890     0.8590 c3         1 379      -0.222600
      8 O12         -0.5360    -1.3140     0.7590 o          1 379      -0.709500
      9 C13         -2.1320     1.5540     0.7500 c3         1 379      -0.134700
     10 O13         -0.4920     0.0000    -1.3960 o          1 379      -0.709500
     11 C15         -2.5180     1.9800    -0.6420 c          1 379       0.895600
     12 C16         -2.6720     2.5670     1.7620 c3         1 379      -0.008100
     13 C01          1.5860    -3.6480    -2.8580 ca         1 379       0.435200
     14 C17         -4.1790     2.5420     1.7410 ca         1 379      -0.048300
     15 N18          2.0190    -4.7300    -3.4770 nb         1 379      -0.693000
     16 C19          3.1640    -4.7420    -4.1300 ca         1 379       0.402200
     17 C20          3.9580    -3.6120    -4.1880 ca         1 379      -0.266300
     18 C21          3.5340    -2.4550    -3.5540 ca         1 379      -0.104000
     19 O23         -3.8140     2.1060    -0.9700 o          1 379      -0.834300
     20 O24         -1.6620     2.2080    -1.4640 o          1 379      -0.834300
     21 C36         -4.8670     1.6850     2.5800 ca         1 379      -0.076000
     22 C37         -6.2490     1.6630     2.5610 ca         1 379      -0.153000
     23 C38         -6.9430     2.4960     1.7040 ca         1 379      -0.146000
     24 C39         -6.2540     3.3530     0.8670 ca         1 379      -0.153000
     25 C40         -4.8720     3.3800     0.8890 ca         1 379      -0.076000
     26 H1           3.4160    -1.2500    -0.7200 hc         1 379       0.041200
     27 H2           1.9710    -2.1330    -0.2090 hc         1 379       0.041200
     28 H12          2.1850     0.8840    -0.5110 hx         1 379       0.104700
     29 H6           2.1850    -0.3660    -2.6740 hc         1 379       0.111200
     30 H7           0.7410    -1.2500    -2.1640 hc         1 379       0.111200
     31 H11          2.7890     0.8610     1.5710 hn         1 379       0.431467
     32 H13          1.5390    -0.0950     2.0130 hn         1 379       0.431467
     33 H16         -0.1750     2.3710     0.4020 hc         1 379       0.020700
     34 H17         -0.3210     1.4460     1.9030 hc         1 379       0.020700
     35 H18         -2.5510     0.5760     0.9580 hc         1 379       0.075700
     36 H19         -2.3200     2.3110     2.7540 hc         1 379       0.015700
     37 H20         -2.3240     3.5590     1.5010 hc         1 379       0.015700
     38 H8           0.6390    -3.6750    -2.3310 h4         1 379       0.053100
     39 H10          3.4880    -5.6500    -4.6250 h4         1 379       0.010100
     40 H14          4.8970    -3.6290    -4.7280 ha         1 379       0.124000
     41 H15          4.1350    -1.5550    -3.5820 ha         1 379       0.128000
     42 H21         -4.3240     1.0320     3.2510 ha         1 379       0.129500
     43 H22         -6.7880     0.9910     3.2180 ha         1 379       0.104000
     44 H25         -8.0260     2.4770     1.6880 ha         1 379       0.098000
     45 H23         -6.7980     4.0090     0.1970 ha         1 379       0.104000
     46 H24         -4.3330     4.0520     0.2320 ha         1 379       0.129500
     47 H103         2.9310    -0.7750     1.5210 hn         1 379       0.431467
@<TRIPOS>BOND
     1     1     3 1
     2     1     7 1
     3     1     8 1
     4     1    10 1
     5     2     3 1
     6     2     4 1
     7     3     6 1
     8     4     5 1
     9     5    13 ar
    10     5    18 ar
    11     7     9 1
    12     9    11 1
    13     9    12 1
    14    11    19 1
    15    11    20 1
    16    12    14 1
    17    13    15 ar
    18    14    21 ar
    19    14    25 ar
    20    15    16 ar
    21    16    17 ar
    22    17    18 ar
    23    21    22 ar
    24    22    23 ar
    25    23    24 ar
    26    24    25 ar
    27     2    26 1
    28     2    27 1
    29     3    28 1
    30     4    29 1
    31     4    30 1
    32     6    31 1
    33     6    32 1
    34     7    33 1
    35     7    34 1
    36     9    35 1
    37    12    36 1
    38    12    37 1
    39    13    38 1
    40    16    39 1
    41    17    40 1
    42    18    41 1
    43    21    42 1
    44    22    43 1
    45    23    44 1
    46    24    45 1
    47    25    46 1
    48    47     6 1
@<TRIPOS>SUBSTRUCTURE
     1 379         1 TEMP              0 ****  ****    0 ROOT
