@<TRIPOS>MOLECULE
37A
   49    52     1     0     0
SMALL
bcc


@<TRIPOS>ATOM
      1 O6           0.0000     0.0000     0.0000 o          1 37A      -0.590100
      2 C9           1.2260     0.0000     0.0000 c          1 37A       0.574100
      3 C6           1.9630     0.0000     1.3010 c3         1 37A       0.055100
      4 O2           0.9600    -0.0260     2.3200 os         1 37A      -0.369600
      5 C5           2.7310     1.2920     1.5290 c3         1 37A       0.142100
      6 C7           3.8050     1.1670     2.6130 c3         1 37A       0.044000
      7 N1           3.2610     0.7250     3.9060 n          1 37A      -0.210800
      8 C21          4.1320     0.1260     4.8340 c          1 37A       0.618100
      9 O1           5.3340    -0.0440     4.6110 o          1 37A      -0.641100
     10 N2           3.5400    -0.2630     6.0180 ns         1 37A      -0.090400
     11 O4           4.4020    -0.8660     6.9490 oh         1 37A      -0.442100
     12 C3           1.8760     1.1380     4.2160 c3         1 37A       0.007000
     13 O3           1.7110     2.1560     2.0510 os         1 37A      -0.387600
     14 C1           1.0370     1.2640     2.9440 c3         1 37A       0.379900
     15 N3           2.0460    -0.0030    -1.1120 ns         1 37A      -0.209900
     16 C12          1.5420    -0.0060    -2.4670 c3         1 37A       0.104300
     17 C13          1.3460     1.3850    -2.9960 ca         1 37A      -0.136300
     18 C15          2.3880     2.0210    -3.6610 ca         1 37A      -0.083000
     19 C19          2.2060     3.3120    -4.1540 ca         1 37A      -0.091000
     20 C17          0.9830     3.9600    -3.9780 cp         1 37A      -0.031000
     21 C16         -0.0590     3.3150    -3.3110 ca         1 37A      -0.091000
     22 C14          0.1250     2.0230    -2.8180 ca         1 37A      -0.083000
     23 C18          0.7950     5.3000    -4.4890 cp         1 37A      -0.044000
     24 C11          1.0940     6.4010    -3.6860 ca         1 37A      -0.087500
     25 C2           0.9120     7.6940    -4.1790 ca         1 37A      -0.102000
     26 C20          0.3120     5.4920    -5.7840 ca         1 37A      -0.087500
     27 C10          0.1310     6.7840    -6.2760 ca         1 37A      -0.102000
     28 C4           0.4300     7.8850    -5.4740 ca         1 37A      -0.101000
     29 H6           2.6170    -0.8600     1.3790 h1         1 37A       0.056700
     30 H5           3.1400     1.6800     0.6040 h1         1 37A       0.056700
     31 H71          4.2810     2.1310     2.7460 h1         1 37A       0.035700
     32 H72          4.5490     0.4520     2.2850 h1         1 37A       0.035700
     33 HN2          2.7020     0.1850     6.3300 hn         1 37A       0.166500
     34 HO4          3.9200    -1.4910     7.4640 ho         1 37A       0.395000
     35 H31          1.4240     0.4010     4.8680 h1         1 37A       0.025200
     36 H32          1.8970     2.0950     4.7230 h1         1 37A       0.025200
     37 H1           0.0450     1.6350     3.1760 h2         1 37A       0.057700
     38 HN3          3.0370    -0.0050    -0.9730 hn         1 37A       0.170500
     39 H121         2.2450    -0.5290    -3.1030 h1         1 37A       0.029700
     40 H122         0.5920    -0.5280    -2.4880 h1         1 37A       0.029700
     41 H15          3.3370     1.5150    -3.7950 ha         1 37A       0.113500
     42 H19          3.0150     3.8130    -4.6720 ha         1 37A       0.110500
     43 H16         -1.0090     3.8180    -3.1750 ha         1 37A       0.110500
     44 H14         -0.6820     1.5190    -2.2990 ha         1 37A       0.113500
     45 H11          1.4680     6.2520    -2.6810 ha         1 37A       0.108000
     46 H2           1.1440     8.5490    -3.5560 ha         1 37A       0.103000
     47 H20          0.0800     4.6370    -6.4080 ha         1 37A       0.108000
     48 H10         -0.2430     6.9330    -7.2820 ha         1 37A       0.103000
     49 H4           0.2890     8.8890    -5.8570 ha         1 37A       0.102000
@<TRIPOS>BOND
     1     1     2 2   
     2     2     3 1   
     3     2    15 1   
     4     3     4 1   
     5     3     5 1   
     6     3    29 1   
     7     4    14 1   
     8     5     6 1   
     9     5    13 1   
    10     5    30 1   
    11     6     7 1   
    12     6    31 1   
    13     6    32 1   
    14     7     8 1   
    15     7    12 1   
    16     8     9 2   
    17     8    10 1   
    18    10    11 1   
    19    10    33 1   
    20    11    34 1   
    21    12    14 1   
    22    12    35 1   
    23    12    36 1   
    24    13    14 1   
    25    14    37 1   
    26    15    16 1   
    27    15    38 1   
    28    16    17 1   
    29    16    39 1   
    30    16    40 1   
    31    17    18 ar  
    32    17    22 ar  
    33    18    19 ar  
    34    18    41 1   
    35    19    20 ar  
    36    19    42 1   
    37    20    21 ar  
    38    20    23 1   
    39    21    22 ar  
    40    21    43 1   
    41    22    44 1   
    42    23    24 ar  
    43    23    26 ar  
    44    24    25 ar  
    45    24    45 1   
    46    25    28 ar  
    47    25    46 1   
    48    26    27 ar  
    49    26    47 1   
    50    27    28 ar  
    51    27    48 1   
    52    28    49 1   
@<TRIPOS>SUBSTRUCTURE
     1 37A         1 TEMP              0 ****  ****    0 ROOT
