@<TRIPOS>MOLECULE
37B
   48    49     1     0     0
SMALL
bcc


@<TRIPOS>ATOM
      1 CAO          1.5300     0.0000     0.0000 c3         1 37B      -0.114700
      2 CAP          2.0330     0.0000     1.4210 c          1 37B       0.981600
      3 OAY          1.7080     1.0080     2.2470 o          1 37B      -0.885800
      4 OAX          2.7270    -0.9060     1.8170 o          1 37B      -0.885800
      5 CAE          2.0400    -1.2500    -0.7210 c3         1 37B      -0.002600
      6 PAD          3.8080    -1.0450    -1.1160 p5         1 37B       0.304400
      7 OAF          3.9860     0.1570    -2.1710 o          1 37B      -0.542500
      8 OAG          4.5570    -0.7310     0.1210 o          1 37B      -0.542500
      9 CAB          4.4520    -2.5880    -1.8400 c3         1 37B      -0.141700
     10 NAC          3.7080    -2.9010    -3.0680 nz         1 37B       0.115400
     11 CAA          5.9350    -2.4170    -2.1710 c3         1 37B       0.034600
     12 CAH          6.7090    -2.0930    -0.8920 c3         1 37B      -0.034100
     13 CAI          8.1710    -1.9230    -1.2180 ca         1 37B      -0.064300
     14 CAJ          9.0170    -3.0150    -1.1840 ca         1 37B      -0.099500
     15 CAK         10.3580    -2.8600    -1.4840 ca         1 37B      -0.111000
     16 CAL         10.8510    -1.6120    -1.8180 ca         1 37B      -0.124000
     17 CAM         10.0050    -0.5200    -1.8530 ca         1 37B      -0.111000
     18 CAN          8.6640    -0.6770    -1.5570 ca         1 37B      -0.099500
     19 CAQ          0.0000     0.0000     0.0000 c3         1 37B       0.050900
     20 CAR         -0.5010     1.2880     0.6000 ca         1 37B      -0.050300
     21 CAS         -0.7320     2.3850    -0.2100 ca         1 37B      -0.051500
     22 CAT         -1.1920     3.5660     0.3400 ca         1 37B      -0.131000
     23 CAU         -1.4230     3.6520     1.7010 ca         1 37B      -0.127000
     24 CAV         -1.1920     2.5550     2.5110 ca         1 37B      -0.131000
     25 CAW         -0.7370     1.3720     1.9590 ca         1 37B      -0.051500
     26 HAO1         1.8910     0.8840    -0.5110 hc         1 37B       0.054700
     27 HAE1         1.4800    -1.3930    -1.6370 hc         1 37B      -0.002300
     28 HAE2         1.9110    -2.1140    -0.0800 hc         1 37B      -0.002300
     29 HAB1         4.3310    -3.3980    -1.1290 hx         1 37B       0.085700
     30 HAC2         4.3510    -3.0230    -3.8250 hn         1 37B       0.190800
     31 HAC1         3.1850    -3.7430    -2.9360 hn         1 37B       0.190800
     32 HAA2         6.3180    -3.3350    -2.6020 hc         1 37B       0.002200
     33 HAA1         6.0560    -1.6080    -2.8810 hc         1 37B       0.002200
     34 HAH1         6.3270    -1.1760    -0.4610 hc         1 37B       0.083200
     35 HAH2         6.5900    -2.9030    -0.1830 hc         1 37B       0.083200
     36 HAJ1         8.6300    -3.9920    -0.9220 ha         1 37B       0.114000
     37 HAK1        11.0220    -3.7160    -1.4570 ha         1 37B       0.093500
     38 HAL1        11.9020    -1.4900    -2.0510 ha         1 37B       0.091000
     39 HAM1        10.3910     0.4570    -2.1160 ha         1 37B       0.093500
     40 HAN1         8.0000     0.1790    -1.5840 ha         1 37B       0.114000
     41 HAQ2        -0.3610    -0.0890    -1.0170 hc         1 37B      -0.012300
     42 HAQ1        -0.3610    -0.8360     0.5860 hc         1 37B      -0.012300
     43 HAS1        -0.5510     2.3180    -1.2760 ha         1 37B       0.106000
     44 HAT1        -1.3730     4.4250    -0.2950 ha         1 37B       0.081500
     45 HAU1        -1.7810     4.5790     2.1320 ha         1 37B       0.076000
     46 HAV1        -1.3750     2.6210     3.5760 ha         1 37B       0.081500
     47 HAW1        -0.5570     0.5130     2.5940 ha         1 37B       0.106000
     48 HAC3         3.0700    -2.1570    -3.2710 hn         1 37B       0.190800
@<TRIPOS>BOND
     1     1     2 1   
     2     1     5 1   
     3     1    19 1   
     4     1    26 1   
     5     2     3 1   
     6     2     4 1   
     7     5     6 1   
     8     5    27 1   
     9     5    28 1   
    10     6     7 1   
    11     6     8 1   
    12     6     9 1   
    13     9    10 1   
    14     9    11 1   
    15     9    29 1   
    16    10    30 1   
    17    10    31 1   
    18    10    48 1   
    19    11    12 1   
    20    11    32 1   
    21    11    33 1   
    22    12    13 1   
    23    12    34 1   
    24    12    35 1   
    25    13    14 ar  
    26    13    18 ar  
    27    14    15 ar  
    28    14    36 1   
    29    15    16 ar  
    30    15    37 1   
    31    16    17 ar  
    32    16    38 1   
    33    17    18 ar  
    34    17    39 1   
    35    18    40 1   
    36    19    20 1   
    37    19    41 1   
    38    19    42 1   
    39    20    21 ar  
    40    20    25 ar  
    41    21    22 ar  
    42    21    43 1   
    43    22    23 ar  
    44    22    44 1   
    45    23    24 ar  
    46    23    45 1   
    47    24    25 ar  
    48    24    46 1   
    49    25    47 1   
@<TRIPOS>SUBSTRUCTURE
     1 37B         1 TEMP              0 ****  ****    0 ROOT
