@<TRIPOS>MOLECULE
37D
   25    26     1     0     0
SMALL
bcc


@<TRIPOS>ATOM
      1 C1         -0.1580   -0.2700    0.0510 cc        1 37D     -0.269300
      2 C2          1.2160   -0.4160    0.0750 cd        1 37D      0.260600
      3 C4          0.5590   -0.2370    2.2030 cd        1 37D      0.290200
      4 C5         -0.5850   -0.1520    1.4240 cc        1 37D     -0.229300
      5 C6          0.7730   -0.1820    3.6200 cd        1 37D     -0.065800
      6 C9          1.3860   -0.3410    5.8090 cc        1 37D      0.372600
      7 C10         1.6650   -0.8660    4.4790 cc        1 37D     -0.277900
      8 C11         2.6420   -1.8860    4.1710 c         1 37D      0.685700
      9 C13         3.3390   -3.5950    2.6700 c3        1 37D      0.128700
     10 C15         2.0560   -0.7450    7.0590 c3        1 37D     -0.143400
     11 O14         3.6390   -2.2150    4.8250 o         1 37D     -0.551000
     12 O12         2.3960   -2.5780    3.0110 os        1 37D     -0.428900
     13 N8          0.3860    0.5850    5.7270 nd        1 37D     -0.511800
     14 N7          0.0360    0.6760    4.4450 na        1 37D     -0.003600
     15 O3          1.6860   -0.3970    1.3850 os        1 37D     -0.324800
     16 H1         -0.8080   -0.2480   -0.8200 ha        1 37D      0.167000
     17 H2          1.9930   -0.5400   -0.6750 h4        1 37D      0.059100
     18 H5         -1.6100   -0.0380    1.7640 ha        1 37D      0.163000
     19 H13         2.9400   -4.0100    1.7110 h1        1 37D      0.049700
     20 H13A        3.3700   -4.3710    3.4710 h1        1 37D      0.049700
     21 H13B        4.3520   -3.1460    2.5330 h1        1 37D      0.049700
     22 H15         2.2820    0.1450    7.6990 hc        1 37D      0.066033
     23 H15A        1.3950   -1.4380    7.6390 hc        1 37D      0.066033
     24 H15B        3.0140   -1.2730    6.8210 hc        1 37D      0.066033
     25 HN7        -0.6770    1.3060    4.1580 hn        1 37D      0.330700
@<TRIPOS>BOND
     1    1    2 2   
     2    1    4 1   
     3    1   16 1   
     4    2   15 1   
     5    2   17 1   
     6    3    4 2   
     7    3    5 1   
     8    3   15 1   
     9    4   18 1   
    10    5    7 2   
    11    5   14 1   
    12    6    7 1   
    13    6   10 1   
    14    6   13 2   
    15    7    8 1   
    16    8   11 2   
    17    8   12 1   
    18    9   12 1   
    19    9   19 1   
    20    9   20 1   
    21    9   21 1   
    22   10   22 1   
    23   10   23 1   
    24   10   24 1   
    25   13   14 1   
    26   14   25 1   
@<TRIPOS>SUBSTRUCTURE
     1 37D         1 TEMP              0 ****  ****    0 ROOT
