@<TRIPOS>MOLECULE
37E
   32    32     1     0     0
SMALL
bcc


@<TRIPOS>ATOM
      1 C1           0.0000     0.0000     0.0000 c3         1 37E       0.182800
      2 N2          -0.4900     1.2010     0.6920 n7         1 37E      -0.490200
      3 C3           1.5290     0.0000     0.0000 c3         1 37E      -0.095700
      4 C5          -1.9580     1.2350     0.7100 c3         1 37E       0.118500
      5 N10          2.0200     0.0000     1.3850 nz         1 37E       0.115400
      6 P11          2.1390     1.4870    -0.8600 p5         1 37E       0.366700
      7 O11          3.7430     1.5540    -0.7460 o          1 37E      -0.673833
      8 O12          1.7130     1.4210    -2.4120 o          1 37E      -0.673833
      9 O13          1.5490     2.6930    -0.2380 o          1 37E      -0.673833
     10 C19         -2.4330     2.0750     1.8980 c3         1 37E      -0.027400
     11 C20         -3.9620     2.1110     1.9180 c3         1 37E      -0.023900
     12 C21         -4.4740     2.7320     0.6170 c3         1 37E      -0.024400
     13 C22         -4.0000     1.8920    -0.5700 c3         1 37E      -0.023900
     14 C23         -2.4700     1.8560    -0.5900 c3         1 37E      -0.027400
     15 H02         -0.3610    -0.0010    -1.0210 h1         1 37E      -0.000300
     16 H03         -0.3610    -0.8840     0.5120 h1         1 37E      -0.000300
     17 H04         -0.1440     1.2090     1.6310 hn         1 37E       0.209800
     18 H01          1.8900    -0.8850    -0.5100 hx         1 37E       0.067700
     19 H1          -2.3460     0.2290     0.8050 h1         1 37E      -0.014300
     20 H05          1.4290    -0.5800     1.9480 hn         1 37E       0.179467
     21 H12          2.9550    -0.3540     1.4080 hn         1 37E       0.179467
     22 H2          -2.0500     3.0840     1.8010 hc         1 37E       0.031700
     23 H3          -2.0710     1.6330     2.8190 hc         1 37E       0.031700
     24 H4          -4.2970     2.7080     2.7580 hc         1 37E       0.002450
     25 H5          -4.3450     1.1020     2.0100 hc         1 37E       0.002450
     26 H6          -4.0870     3.7400     0.5220 hc         1 37E       0.007700
     27 H7          -5.5570     2.7560     0.6310 hc         1 37E       0.007700
     28 H8          -4.3620     2.3340    -1.4900 hc         1 37E       0.002450
     29 H9          -4.3830     0.8830    -0.4720 hc         1 37E       0.002450
     30 H10         -2.0880     2.8660    -0.6820 hc         1 37E       0.031700
     31 H11         -2.1360     1.2600    -1.4300 hc         1 37E       0.031700
     32 H103         2.0000     0.9330     1.7460 hn         1 37E       0.179467
@<TRIPOS>BOND
     1     1     2 1   
     2     1     3 1   
     3     1    15 1   
     4     1    16 1   
     5     2     4 1   
     6     2    17 1   
     7     3     5 1   
     8     3     6 1   
     9     3    18 1   
    10     4    10 1   
    11     4    14 1   
    12     4    19 1   
    13     5    20 1   
    14     5    21 1   
    15     5    32 1   
    16     6     7 1   
    17     6     8 1   
    18     6     9 1   
    19    10    11 1   
    20    10    22 1   
    21    10    23 1   
    22    11    12 1   
    23    11    24 1   
    24    11    25 1   
    25    12    13 1   
    26    12    26 1   
    27    12    27 1   
    28    13    14 1   
    29    13    28 1   
    30    13    29 1   
    31    14    30 1   
    32    14    31 1   
@<TRIPOS>SUBSTRUCTURE
     1 37E         1 TEMP              0 ****  ****    0 ROOT
