@<TRIPOS>MOLECULE
molecule
   32    32     1     0     0
SMALL
bcc


@<TRIPOS>ATOM
      1 C1           0.0000     0.0000     0.0000 c3         1 37E       0.169800
      2 N2          -0.4900     1.2010     0.6920 n7         1 37E      -0.743200
      3 C3           1.5290     0.0000     0.0000 c3         1 37E      -0.004700
      4 C5          -1.9580     1.2350     0.7100 c3         1 37E       0.173500
      5 N10          2.0200     0.0000     1.3850 nz         1 37E      -0.766600
      6 P11          2.1390     1.4870    -0.8600 p5         1 37E       0.886700
      7 O11          3.7430     1.5540    -0.7460 o          1 37E      -0.831833
      8 O12          1.7130     1.4210    -2.4120 o          1 37E      -0.831833
      9 O13          1.5490     2.6930    -0.2380 o          1 37E      -0.831833
     10 C19         -2.4330     2.0750     1.8980 c3         1 37E      -0.074400
     11 C20         -3.9620     2.1110     1.9180 c3         1 37E      -0.081400
     12 C21         -4.4740     2.7320     0.6170 c3         1 37E      -0.079400
     13 C22         -4.0000     1.8920    -0.5700 c3         1 37E      -0.081400
     14 C23         -2.4700     1.8560    -0.5900 c3         1 37E      -0.074400
     15 H02         -0.3610    -0.0010    -1.0210 h1         1 37E       0.034700
     16 H03         -0.3610    -0.8840     0.5120 h1         1 37E       0.034700
     17 H04         -0.1440     1.2090     1.6310 hn         1 37E       0.315800
     18 H01          1.8900    -0.8850    -0.5100 hx         1 37E       0.087700
     19 H1          -2.3460     0.2290     0.8050 h1         1 37E      -0.002300
     20 H05          1.4290    -0.5800     1.9480 hn         1 37E       0.421800
     21 H12          2.9550    -0.3540     1.4080 hn         1 37E       0.421800
     22 H2          -2.0500     3.0840     1.8010 hc         1 37E       0.060450
     23 H3          -2.0710     1.6330     2.8190 hc         1 37E       0.060450
     24 H4          -4.2970     2.7080     2.7580 hc         1 37E       0.030200
     25 H5          -4.3450     1.1020     2.0100 hc         1 37E       0.030200
     26 H6          -4.0870     3.7400     0.5220 hc         1 37E       0.035700
     27 H7          -5.5570     2.7560     0.6310 hc         1 37E       0.035700
     28 H8          -4.3620     2.3340    -1.4900 hc         1 37E       0.030200
     29 H9          -4.3830     0.8830    -0.4720 hc         1 37E       0.030200
     30 H10         -2.0880     2.8660    -0.6820 hc         1 37E       0.060450
     31 H11         -2.1360     1.2600    -1.4300 hc         1 37E       0.060450
     32 H103         2.0000     0.9330     1.7460 hn         1 37E       0.421800
@<TRIPOS>BOND
     1     1     2 1   
     2     1     3 1   
     3     2     4 1   
     4     3     5 1   
     5     3     6 1   
     6     4    10 1   
     7     4    14 1   
     8     6     7 1   
     9     6     8 1   
    10     6     9 1   
    11    10    11 1   
    12    11    12 1   
    13    12    13 1   
    14    13    14 1   
    15     1    15 1   
    16     1    16 1   
    17     2    17 1   
    18     3    18 1   
    19     4    19 1   
    20     5    20 1   
    21     5    21 1   
    22    10    22 1   
    23    10    23 1   
    24    11    24 1   
    25    11    25 1   
    26    12    26 1   
    27    12    27 1   
    28    13    28 1   
    29    13    29 1   
    30    14    30 1   
    31    14    31 1   
    32    32     5 1   
@<TRIPOS>SUBSTRUCTURE
     1 37E         1 TEMP              0 ****  ****    0 ROOT
