@<TRIPOS>MOLECULE
molecule
   61    65     1     0     0
SMALL
bcc


@<TRIPOS>ATOM
      1 FAD          0.0000     0.0000     0.0000 f          1 37F      -0.210300
      2 CBK          1.3990     0.0000     0.0000 c3         1 37F       0.680100
      3 FAE          1.8660     0.0000     1.3190 f          1 37F      -0.210300
      4 FAF          1.8660    -1.1430    -0.6600 f          1 37F      -0.210300
      5 CBE          1.9010     1.2300    -0.7110 cc         1 37F      -0.053200
      6 CAP          1.0260     2.1330    -1.2300 cd         1 37F      -0.205200
      7 CBF          1.5180     3.2750    -1.8900 c          1 37F       0.679700
      8 OAC          0.7370     4.0860    -2.3570 o          1 37F      -0.621500
      9 NAX          2.8430     3.4770    -2.0080 ns         1 37F      -0.396100
     10 CAN          3.7280     2.5990    -1.5020 cd         1 37F       0.043600
     11 CBC          3.2910     1.4670    -0.8420 cc         1 37F      -0.237200
     12 CAY          4.2640     0.5100    -0.2850 c          1 37F       0.683300
     13 OAB          3.8830    -0.5560     0.1600 o          1 37F      -0.587100
     14 NAW          5.5770     0.8170    -0.2680 ns         1 37F      -0.454100
     15 CBB          6.5040    -0.1030     0.2410 ca         1 37F       0.082600
     16 CAO          6.0830    -1.1150     1.0850 ca         1 37F      -0.139000
     17 CBD          7.8520    -0.0010    -0.1090 ca         1 37F       0.039600
     18 NBJ          8.2770     1.0170    -0.9660 nh         1 37F      -0.634000
     19 CAT          9.2700     1.8780    -0.3080 c3         1 37F       0.167300
     20 CAR          9.6490     3.0240    -1.2490 c3         1 37F       0.162300
     21 NBI         10.1820     2.4710    -2.5020 n3         1 37F      -0.732600
     22 CAA         10.6290     3.5420    -3.4030 c3         1 37F       0.153100
     23 CAS          9.1890     1.6100    -3.1590 c3         1 37F       0.162300
     24 CAU          8.8100     0.4630    -2.2180 c3         1 37F       0.167300
     25 CAJ          8.7700    -0.9120     0.3960 ca         1 37F      -0.139000
     26 CAI          8.3540    -1.9190     1.2420 ca         1 37F      -0.134000
     27 CAZ          7.0080    -2.0280     1.5900 cp         1 37F      -0.015000
     28 CBA          6.5610    -3.1150     2.4950 cp         1 37F      -0.162300
     29 CAQ          7.4790    -4.0250     2.9990 ca         1 37F      -0.075000
     30 CBG          7.0030    -5.0360     3.8530 ca         1 37F      -0.154300
     31 CAK          7.8710    -5.9950     4.4010 ca         1 37F      -0.111000
     32 CAG          7.3750    -6.9600     5.2240 ca         1 37F      -0.127000
     33 CAH          6.0170    -7.0090     5.5300 ca         1 37F      -0.121000
     34 CAL          5.1470    -6.0960     5.0150 ca         1 37F      -0.162300
     35 CBH          5.6210    -5.0850     4.1620 ca         1 37F       0.418600
     36 NAV          4.7840    -4.1780     3.6430 nb         1 37F      -0.677000
     37 CAM          5.2080    -3.2250     2.8530 ca         1 37F       0.446200
     38 H1          -0.0330     2.0420    -1.0220 ha         1 37F       0.191000
     39 H2           4.7910     2.7840    -1.6080 h4         1 37F       0.163000
     40 H4           5.8830     1.7190    -0.5720 hn         1 37F       0.332500
     41 H5           5.0370    -1.1970     1.3550 ha         1 37F       0.196000
     42 H6          10.1530     1.2960    -0.0760 h1         1 37F       0.049450
     43 H7           8.8480     2.2840     0.6030 h1         1 37F       0.049450
     44 H8           8.7700     3.6200    -1.4640 h1         1 37F       0.038950
     45 H9          10.4040     3.6420    -0.7780 h1         1 37F       0.038950
     46 H11         11.0480     3.1060    -4.3020 h1         1 37F       0.033367
     47 H12         11.3840     4.1400    -2.9070 h1         1 37F       0.033367
     48 H13          9.7850     4.1690    -3.6650 h1         1 37F       0.033367
     49 H14          9.6120     1.2030    -4.0700 h1         1 37F       0.038950
     50 H15          8.3060     2.1910    -3.3920 h1         1 37F       0.038950
     51 H16          8.0550    -0.1540    -2.6890 h1         1 37F       0.049450
     52 H17          9.6890    -0.1320    -2.0030 h1         1 37F       0.049450
     53 H18          9.8160    -0.8310     0.1250 ha         1 37F       0.139000
     54 H19          9.0740    -2.6280     1.6340 ha         1 37F       0.134000
     55 H20          8.5390    -3.8050     2.9570 ha         1 37F       0.142000
     56 H21          8.9300    -5.9670     4.1710 ha         1 37F       0.132000
     57 H22          8.0460    -7.6980     5.6470 ha         1 37F       0.130000
     58 H23          5.6460    -7.7860     6.1870 ha         1 37F       0.133000
     59 H24          4.0940    -6.1490     5.2630 ha         1 37F       0.150000
     60 H25          4.4980    -2.5050     2.4650 h4         1 37F       0.041100
     61 H26          3.1760     4.2940    -2.4820 hn         1 37F       0.345500
@<TRIPOS>BOND
     1    22    21 1
     2    23    21 1
     3    23    24 1
     4    21    20 1
     5    20    19 1
     6    24    18 1
     7    19    18 1
     8    18    17 1
     9    17    25 ar
    10    17    15 ar
    11     3     2 1
    12    25    26 ar
    13     4     2 1
    14    14    15 1
    15    14    12 1
    16     2     5 1
    17     2     1 1
    18    15    16 ar
    19     5     6 2
    20     5    11 1
    21     6     7 1
    22    26    27 ar
    23    11    12 1
    24    11    10 2
    25    12    13 2
    26     7     8 2
    27     7     9 1
    28    10     9 1
    29    16    27 ar
    30    27    28 1
    31    28    29 ar
    32    28    37 ar
    33    29    30 ar
    34    37    36 ar
    35    30    31 ar
    36    30    35 ar
    37    31    32 ar
    38    36    35 ar
    39    35    34 ar
    40    32    33 ar
    41    34    33 ar
    42     6    38 1
    43    10    39 1
    44    14    40 1
    45    16    41 1
    46    19    42 1
    47    19    43 1
    48    20    44 1
    49    20    45 1
    50    22    46 1
    51    22    47 1
    52    22    48 1
    53    23    49 1
    54    23    50 1
    55    24    51 1
    56    24    52 1
    57    25    53 1
    58    26    54 1
    59    29    55 1
    60    31    56 1
    61    32    57 1
    62    33    58 1
    63    34    59 1
    64    37    60 1
    65     9    61 1
@<TRIPOS>SUBSTRUCTURE
     1 37F         1 TEMP              0 ****  ****    0 ROOT
