@<TRIPOS>MOLECULE
37G
   57    53     1     0     0
SMALL
bcc


@<TRIPOS>ATOM
      1 C13         0.2090   -0.4910   -0.1800 c1        1 37G     -0.122000
      2 C15         0.4960   -0.8790    2.2750 c1        1 37G     -0.130000
      3 C17        -1.6230   -0.5370    1.3270 c1        1 37G      0.148000
      4 C20        -8.3180    0.4910   -1.1870 c1        1 37G     -0.165000
      5 C21        -8.1710    0.3020   -0.0080 c1        1 37G     -0.057000
      6 C22        -7.6470   -0.4890    4.9540 c1        1 37G     -0.157000
      7 C24        -4.1520   -0.3500    1.7090 c2        1 37G      0.084000
      8 C26        -7.9900    0.0710    1.4270 c2        1 37G      0.418000
      9 C01         6.9620    5.1560    5.4200 c3        1 37G     -0.266000
     10 C03         8.3920    2.6590    0.6890 c2        1 37G     -0.159000
     11 C04         7.3700    0.5420    1.3860 c2        1 37G      0.101000
     12 O05         8.5960    0.0140    1.8370 os        1 37G     -0.068000
     13 N06         8.4210   -1.2040    2.3190 n2        1 37G     -0.010000
     14 C07         7.1180   -1.5380    2.2200 c2        1 37G     -0.044000
     15 C08         6.3800   -0.4190    1.6090 c2        1 37G     -0.236000
     16 C09         5.0060   -0.1700    1.2410 c1        1 37G      0.020000
     17 C11         2.7830   -0.8740    1.1330 c3        1 37G     -0.043000
     18 C12         0.6160   -0.3670   -1.3000 c1        1 37G     -0.250000
     19 C14        -0.2890   -0.6360    1.1390 c2        1 37G     -0.060000
     20 C16         1.9290   -1.0240    2.3790 c3        1 37G     -0.179000
     21 C18        -8.6310    0.8930   -3.6890 c1        1 37G     -0.265000
     22 C19        -8.4840    0.7040   -2.5140 c1        1 37G      0.001000
     23 N23        -7.4660   -0.6770    6.0860 n1        1 37G     -0.169000
     24 C25        -2.8570   -0.4460    1.5160 c1        1 37G     -0.256000
     25 O27        -9.0010    0.0610    2.1810 o         1 37G     -0.562000
     26 O28        -6.8120   -0.1120    1.8650 o         1 37G     -0.562000
     27 C29         6.5530   -2.8080    2.6670 c2        1 37G     -0.018000
     28 C30         6.4790   -3.8900    1.8590 c2        1 37G      0.048000
     29 CL31        7.0560   -3.8240    0.2540 cl        1 37G     -0.003000
     30 C32         5.9180   -5.1550    2.2690 c2        1 37G     -0.459000
     31 C33         5.7920   -6.2930    1.6160 c1        1 37G      0.252000
     32 C34         4.8960   -2.3770    4.4560 c2        1 37G     -0.182000
     33 C35         6.0850   -2.8320    4.0570 c2        1 37G     -0.070000
     34 CL36        7.2070   -3.4770    5.1780 cl        1 37G     -0.031000
     35 H13         2.7000    0.1490    0.6850 h1        1 37G      0.112000
     36 H15         2.2710   -0.2740    3.1510 hc        1 37G      0.126500
     37 H22        -7.8190   -0.3130    3.8910 ha        1 37G      0.311000
     38 H01         6.3110    2.1610    0.5000 ha        1 37G      0.174000
     39 H01A        6.0200    4.8600    4.9090 hc        1 37G      0.066500
     40 H01B        6.7420    5.4270    6.4750 hc        1 37G      0.066500
     41 H02         7.6770    4.3050    5.3970 hc        1 37G      0.066500
     42 H03         7.4080    6.0300    4.8970 hc        1 37G      0.066500
     43 H03A        8.3070    3.6620    0.2490 ha        1 37G      0.125000
     44 H03B        9.4010    2.3630    1.0070 ha        1 37G      0.125000
     45 H09         3.9880    2.5170   -0.0990 ha        1 37G      0.000000
     46 H09A        4.0810    1.9060    0.1830 ha        1 37G      0.000000
     47 H12         2.5430   -1.6540    0.3650 h1        1 37G      0.112000
     48 H16         2.1070   -2.0460    2.8280 hc        1 37G      0.126500
     49 H18        -8.7610    1.0590   -4.7250 ha        1 37G      0.213000
     50 H19         0.9820   -0.2570   -2.2870 ha        1 37G      0.216000
     51 HN23       -4.6230   -0.4520    2.7040 ha        1 37G      0.186500
     52 H25        -4.8740   -0.1580    0.8890 ha        1 37G      0.186500
     53 H32         5.5280   -5.1740    3.3190 ha        1 37G      0.214000
     54 H33         4.5740   -2.3910    5.5060 ha        1 37G      0.144000
     55 H34         4.1730   -1.9570    3.7370 ha        1 37G      0.144000
     56 O10         4.1620   -1.1470    1.5170 os        1 37G     -0.197000
     57 C02         7.3300    1.8610    0.8220 c2        1 37G     -0.134000
@<TRIPOS>BOND
     1    1   18 1   
     2    1   19 1   
     3    2   19 1   
     4    2   20 1   
     5    3   19 1   
     6    3   24 1   
     7    4    5 1   
     8    4   22 1   
     9    5    8 1   
    10    6   23 1   
    11    6   37 1   
    12    7   24 1   
    13    7   51 1   
    14    7   52 1   
    15    8   25 1   
    16    8   26 1   
    17    9   39 1   
    18    9   40 1   
    19    9   41 1   
    20    9   42 1   
    21   10   43 1   
    22   10   44 1   
    23   10   57 1   
    24   11   12 1   
    25   11   15 1   
    26   11   57 1   
    27   12   13 1   
    28   13   14 1   
    29   14   15 1   
    30   14   27 1   
    31   15   16 1   
    32   16   56 1   
    33   17   20 1   
    34   17   35 1   
    35   17   47 1   
    36   17   56 1   
    37   18   50 1   
    38   20   36 1   
    39   20   48 1   
    40   21   22 1   
    41   21   49 1   
    42   27   28 1   
    43   27   33 1   
    44   28   29 1   
    45   28   30 1   
    46   30   31 1   
    47   30   53 1   
    48   32   33 1   
    49   32   54 1   
    50   32   55 1   
    51   33   34 1   
    52   38   57 1   
    53   45   46 1   
@<TRIPOS>SUBSTRUCTURE
     1 37G         1 TEMP              0 ****  ****    0 ROOT
