@<TRIPOS>MOLECULE
37H
   60    58     1     0     0
SMALL
bcc


@<TRIPOS>ATOM
      1 C4         45.5380   93.3660   12.6510 c2        1 37H      0.058000
      2 C5         45.8710   92.1380   13.3270 c2        1 37H     -0.245000
      3 C6         46.4070   91.0520   12.5250 c2        1 37H      0.290000
      4 C8         45.4490   93.6160   14.8790 c2        1 37H     -0.031000
      5 N1         46.8340   91.3690   11.2330 n2        1 37H     -0.274000
      6 N3         45.6940   93.4830   11.2910 nh        1 37H     -0.255000
      7 C          50.3820   93.8220    6.6960 c1        1 37H      0.444000
      8 O          50.8980   93.4890    5.6860 o         1 37H     -0.222000
      9 CA        -92.4750 -174.6930  -33.0220 c2        1 37H     -0.179000
     10 N          48.4270   94.3630   10.1590 n4        1 37H     -0.121000
     11 CAL       -92.7600 -176.9510  -34.0170 c3        1 37H     -0.148000
     12 CAZ       -92.4680 -178.2640  -33.3160 c3        1 37H     -0.193000
     13 CAM       -93.1670 -179.4530  -33.7980 c1        1 37H     -0.146000
     14 NAR       -94.0370 -179.4860  -34.7990 n3        1 37H     -0.208000
     15 CAT       -94.6080 -180.7760  -35.1040 c2        1 37H      0.125000
     16 NAB       -95.4610 -181.1230  -36.0000 n2        1 37H     -0.198000
     17 NAA       -94.0850 -181.8620  -34.1930 n4        1 37H     -0.066000
     18 CBC        47.3560   96.0010   11.7800 c3        1 37H      0.019000
     19 OAS        46.9560   95.9320   13.1460 os        1 37H     -0.261000
     20 CBA        48.0090   97.3730   11.5500 c3        1 37H     -0.042000
     21 OAG        48.5350   97.3120   10.2320 oh        1 37H     -0.372000
     22 CBB        45.2050   96.7850   14.4600 c1        1 37H      0.096000
     23 OAH        45.1780   96.3390   15.6890 oh        1 37H     -0.221000
     24 CBD        45.5490   95.7320   13.3930 c3        1 37H      0.064000
     25 N9         45.2550   94.3300   13.6440 na        1 37H     -0.209000
     26 N7         45.7660   92.3290   14.7170 n2        1 37H     -0.083000
     27 C2         46.5060   92.5220   10.6800 c1        1 37H     -0.109000
     28 N6         46.5350   89.8150   13.0420 n3        1 37H     -0.287000
     29 H1         45.2820   94.1170   15.8440 h5        1 37H      0.232000
     30 H3        -90.8740 -176.0460  -33.3670 ha        1 37H      0.131000
     31 H4         48.2840   95.1290    9.4910 hn        1 37H      0.270000
     32 H5         49.3440   93.9550    9.9660 hn        1 37H      0.270000
     33 H7        -91.8490 -173.8880  -32.6090 ha        1 37H      0.125000
     34 H8        -93.5480 -174.4640  -33.0720 ha        1 37H      0.125000
     35 H9        -93.8570 -176.7160  -33.9460 hc        1 37H      0.085000
     36 H10       -92.5030 -177.0360  -35.1080 hc        1 37H      0.085000
     37 H11        48.1990   94.0240   12.2480 hx        1 37H      0.143000
     38 H12        49.4460   96.5140    8.1970 ha        1 37H      0.004500
     39 H13        48.8060   96.5630    7.9760 ha        1 37H      0.004500
     40 H14       -91.3640 -178.4970  -33.3740 hc        1 37H      0.159500
     41 H15       -95.8320 -180.4350  -36.6230 hn        1 37H      0.238000
     42 H16       -93.6140 -182.5800  -34.7500 hn        1 37H      0.287333
     43 H17       -93.3980 -181.3850  -33.5290 hn        1 37H      0.287333
     44 H18       -92.7100 -178.1750  -32.2150 hc        1 37H      0.159500
     45 H19        49.4210   95.3000   11.7890 hx        1 37H      0.143000
     46 H20        46.4840   95.9160   11.0770 h1        1 37H      0.102000
     47 H21        47.2400   98.1840   11.6410 h1        1 37H      0.105000
     48 H22        48.8280   98.2010    9.9960 ho        1 37H      0.242000
     49 H23        48.8320   97.5530   12.2910 h1        1 37H      0.105000
     50 H24        44.9410   97.0790   16.2870 ho        1 37H      0.297000
     51 H25        44.9320   96.0350   12.4890 h2        1 37H      0.137000
     52 H26        45.2210   94.1780   10.7620 hn        1 37H      0.258000
     53 H27        46.9140   89.0690   12.5030 hn        1 37H      0.266000
     54 H28        46.2670   89.6440   13.9850 hn        1 37H      0.266000
     55 HN3        47.6760   93.5790   10.0060 hn        1 37H      0.270000
     56 HAR2      -94.3450 -178.7190  -35.3700 hn        1 37H      0.236000
     57 HAA3      -94.8620 -182.2800  -33.6750 hn        1 37H      0.287333
     58 CAN        48.4010   94.8820   11.5460 c3        1 37H     -0.137000
     59 CB        -91.9580 -175.8490  -33.4290 c2        1 37H     -0.193000
     60 OXT        49.8600   94.1650    7.7170 o         1 37H     -0.222000
@<TRIPOS>BOND
     1    1    2 1
     2    1    6 1
     3    1   25 1
     4    2    3 1
     5    2   26 1
     6    3    5 1
     7    3   28 1
     8    4   25 1
     9    4   26 1
    10    4   29 1
    11    5   27 1
    12    6   27 1
    13    6   52 1
    14    7    8 1
    15    7   60 1
    16    9   33 1
    17    9   34 1
    18    9   59 1
    19   10   31 1
    20   10   32 1
    21   10   55 1
    22   10   58 1
    23   11   12 1
    24   11   35 1
    25   11   36 1
    26   11   59 1
    27   12   13 1
    28   12   40 1
    29   12   44 1
    30   13   14 1
    31   14   15 1
    32   14   56 1
    33   15   16 1
    34   15   17 1
    35   16   41 1
    36   17   42 1
    37   17   43 1
    38   17   57 1
    39   18   19 1
    40   18   20 1
    41   18   46 1
    42   18   58 1
    43   19   24 1
    44   20   21 1
    45   20   47 1
    46   20   49 1
    47   21   48 1
    48   22   23 1
    49   22   24 1
    50   23   50 1
    51   24   25 1
    52   24   51 1
    53   28   53 1
    54   28   54 1
    55   30   59 1
    56   37   58 1
    57   38   39 1
    58   45   58 1
@<TRIPOS>SUBSTRUCTURE
     1 37H         1 TEMP              0 ****  ****    0 ROOT
