@<TRIPOS>MOLECULE
37J
   46    49     1     0     0
SMALL
bcc


@<TRIPOS>ATOM
      1 N1           0.0000     0.0000     0.0000 nc         1 37J      -0.624000
      2 C2           1.3370     0.0000     0.0000 cc         1 37J       0.262800
      3 O2          -1.6250     0.0010     3.5990 o          1 37J      -0.588100
      4 N3           3.6130     0.0050    -3.6640 na         1 37J       0.257700
      5 C4           2.1270     0.0000    -1.2410 c          1 37J       0.505600
      6 N4           1.7490    -0.0000    -4.8130 nc         1 37J      -0.573100
      7 C5          -2.3990     0.0000     2.6620 c          1 37J       0.575700
      8 C6          -3.8530     0.0000     2.9080 ca         1 37J      -0.188600
      9 F6           6.9090    -1.3210    -8.0220 f          1 37J      -0.209967
     10 F4           7.4720     0.6540    -7.0210 f          1 37J      -0.209967
     11 F5           6.3590     0.6620    -9.0160 f          1 37J      -0.209967
     12 C14          5.1900     0.0020    -7.0590 ca         1 37J      -0.213300
     13 C15          5.1750    -0.0020    -5.6790 ca         1 37J      -0.007000
     14 C16          3.9650     0.0010    -5.0020 ca         1 37J      -0.287200
     15 C19          2.2490     0.0010    -3.6030 cd         1 37J       0.152400
     16 C17          2.7580     0.0000    -5.7230 ca         1 37J       0.110400
     17 C18          2.7910     0.0000    -7.1200 ca         1 37J      -0.053000
     18 C13          4.0020     0.0000    -7.7750 ca         1 37J      -0.067000
     19 N5           1.5060     0.0000    -2.4370 ns         1 37J       0.029600
     20 O1           3.3430     0.0010    -1.1880 o          1 37J      -0.671100
     21 C3          -0.5610    -0.0000     1.1670 cd         1 37J       0.422300
     22 S            0.6800     0.0000     2.4140 ss         1 37J      -0.177300
     23 C1           1.9060     0.0000     1.2230 cd         1 37J      -0.085400
     24 N2          -1.9290     0.0010     1.3990 ns         1 37J      -0.061400
     25 C11         -4.7470     0.0010     1.8340 ca         1 37J      -0.045000
     26 C10         -6.1050     0.0010     2.0710 ca         1 37J      -0.132000
     27 C9          -6.5890     0.0020     3.3690 ca         1 37J      -0.014000
     28 C8          -5.7160     0.0020     4.4390 ca         1 37J      -0.213000
     29 C7          -4.3460    -0.0050     4.2200 ca         1 37J       0.213100
     30 O3          -3.4870    -0.0110     5.2700 os         1 37J      -0.273900
     31 C12         -4.0640    -0.0160     6.5780 c3         1 37J       0.748700
     32 F1          -3.0430    -0.0220     7.5360 f          1 37J      -0.195300
     33 F2          -4.8540     1.1260     6.7440 f          1 37J      -0.195300
     34 F3          -4.8560    -1.1590     6.7340 f          1 37J      -0.195300
     35 H1           4.2420     0.0070    -2.8850 hn         1 37J       0.183700
     36 H3           6.1040    -0.0750    -5.1270 ha         1 37J       0.115000
     37 H4           1.8670    -0.0020    -7.6850 ha         1 37J       0.116000
     38 H5           4.0270    -0.0030    -8.8580 ha         1 37J       0.118000
     39 H6           0.5060    -0.0010    -2.4810 hn         1 37J       0.202500
     40 H7           2.9720     0.0000     1.4190 h4         1 37J       0.179000
     41 H8          -2.5680     0.0010     0.6280 hn         1 37J       0.184500
     42 H9          -4.3740     0.0010     0.8170 ha         1 37J       0.107000
     43 H10         -6.7980     0.0010     1.2370 ha         1 37J       0.115000
     44 H11         -7.6570     0.0040     3.5460 ha         1 37J       0.110000
     45 H12         -6.1020    -0.0000     5.4510 ha         1 37J       0.139000
     46 C20          6.5060    -0.0010    -7.7930 c3         1 37J       0.643200
@<TRIPOS>BOND
     1     1     2 1   
     2     1    21 2   
     3     2     5 1   
     4     2    23 2   
     5     3     7 2   
     6     4    14 1   
     7     4    15 1   
     8     4    35 1   
     9     5    19 1   
    10     5    20 2   
    11     6    15 2   
    12     6    16 1   
    13     7     8 1   
    14     7    24 1   
    15     8    25 ar  
    16     8    29 ar  
    17     9    46 1   
    18    10    46 1   
    19    11    46 1   
    20    12    13 ar  
    21    12    18 ar  
    22    12    46 1   
    23    13    14 ar  
    24    13    36 1   
    25    14    16 ar  
    26    15    19 1   
    27    16    17 ar  
    28    17    18 ar  
    29    17    37 1   
    30    18    38 1   
    31    19    39 1   
    32    21    22 1   
    33    21    24 1   
    34    22    23 1   
    35    23    40 1   
    36    24    41 1   
    37    25    26 ar  
    38    25    42 1   
    39    26    27 ar  
    40    26    43 1   
    41    27    28 ar  
    42    27    44 1   
    43    28    29 ar  
    44    28    45 1   
    45    29    30 1   
    46    30    31 1   
    47    31    32 1   
    48    31    33 1   
    49    31    34 1   
@<TRIPOS>SUBSTRUCTURE
     1 37J         1 TEMP              0 ****  ****    0 ROOT
