@<TRIPOS>MOLECULE
molecule
   46    49     1     0     0
SMALL
bcc


@<TRIPOS>ATOM
      1 N1           0.0000     0.0000     0.0000 nc         1 37J      -0.732000
      2 C2           1.3370     0.0000     0.0000 cc         1 37J       0.314800
      3 O2          -1.6250     0.0010     3.5990 o          1 37J      -0.563100
      4 N3           3.6130     0.0050    -3.6640 na         1 37J      -0.261300
      5 C4           2.1270     0.0000    -1.2410 c          1 37J       0.616600
      6 N4           1.7490    -0.0000    -4.8130 nc         1 37J      -0.651100
      7 C5          -2.3990     0.0000     2.6620 c          1 37J       0.678700
      8 C6          -3.8530     0.0000     2.9080 ca         1 37J      -0.165600
      9 F6           6.9090    -1.3210    -8.0220 f          1 37J      -0.224967
     10 F4           7.4720     0.6540    -7.0210 f          1 37J      -0.224967
     11 F5           6.3590     0.6620    -9.0160 f          1 37J      -0.224967
     12 C14          5.1900     0.0020    -7.0590 ca         1 37J      -0.180300
     13 C15          5.1750    -0.0020    -5.6790 ca         1 37J      -0.065000
     14 C16          3.9650     0.0010    -5.0020 ca         1 37J      -0.105200
     15 C19          2.2490     0.0010    -3.6030 cd         1 37J       0.509400
     16 C17          2.7580     0.0000    -5.7230 ca         1 37J       0.136400
     17 C18          2.7910     0.0000    -7.1200 ca         1 37J      -0.086000
     18 C13          4.0020     0.0000    -7.7750 ca         1 37J      -0.102000
     19 N5           1.5060     0.0000    -2.4370 ns         1 37J      -0.440400
     20 O1           3.3430     0.0010    -1.1880 o          1 37J      -0.615100
     21 C3          -0.5610    -0.0000     1.1670 cd         1 37J       0.555300
     22 S            0.6800     0.0000     2.4140 ss         1 37J      -0.018300
     23 C1           1.9060     0.0000     1.2230 cd         1 37J      -0.193400
     24 N2          -1.9290     0.0010     1.3990 ns         1 37J      -0.517400
     25 C11         -4.7470     0.0010     1.8340 ca         1 37J      -0.070000
     26 C10         -6.1050     0.0010     2.0710 ca         1 37J      -0.156000
     27 C9          -6.5890     0.0020     3.3690 ca         1 37J      -0.055000
     28 C8          -5.7160     0.0020     4.4390 ca         1 37J      -0.212000
     29 C7          -4.3460    -0.0050     4.2200 ca         1 37J       0.193100
     30 O3          -3.4870    -0.0110     5.2700 os         1 37J      -0.303900
     31 C12         -4.0640    -0.0160     6.5780 c3         1 37J       0.791700
     32 F1          -3.0430    -0.0220     7.5360 f          1 37J      -0.201633
     33 F2          -4.8540     1.1260     6.7440 f          1 37J      -0.201633
     34 F3          -4.8560    -1.1590     6.7340 f          1 37J      -0.201633
     35 H1           4.2420     0.0070    -2.8850 hn         1 37J       0.342700
     36 H3           6.1040    -0.0750    -5.1270 ha         1 37J       0.145000
     37 H4           1.8670    -0.0020    -7.6850 ha         1 37J       0.149000
     38 H5           4.0270    -0.0030    -8.8580 ha         1 37J       0.148000
     39 H6           0.5060    -0.0010    -2.4810 hn         1 37J       0.374500
     40 H7           2.9720     0.0000     1.4190 h4         1 37J       0.204000
     41 H8          -2.5680     0.0010     0.6280 hn         1 37J       0.346500
     42 H9          -4.3740     0.0010     0.8170 ha         1 37J       0.137000
     43 H10         -6.7980     0.0010     1.2370 ha         1 37J       0.145000
     44 H11         -7.6570     0.0040     3.5460 ha         1 37J       0.146000
     45 H12         -6.1020    -0.0000     5.4510 ha         1 37J       0.161000
     46 C20          6.5060    -0.0010    -7.7930 c3         1 37J       0.677200
@<TRIPOS>BOND
     1    17    16 ar
     2    17    18 ar
     3     6    16 1
     4     6    15 2
     5    23    22 1
     6    23     2 2
     7    16    14 ar
     8    18    12 ar
     9    22    21 1
    10    19    15 1
    11    19     5 1
    12    15     4 1
    13    33    31 1
    14     2     5 1
    15     2     1 1
    16     3     7 2
    17    14     4 1
    18    14    13 ar
    19     5    20 2
    20    12    13 ar
    21    12    46 1
    22    11    46 1
    23    21     1 2
    24    21    24 1
    25    31    30 1
    26    31    34 1
    27    31    32 1
    28    46     9 1
    29    46    10 1
    30    30    29 1
    31     7    24 1
    32     7     8 1
    33    29     8 ar
    34    29    28 ar
    35     8    25 ar
    36    28    27 ar
    37    25    26 ar
    38    27    26 ar
    39     4    35 1
    40    13    36 1
    41    17    37 1
    42    18    38 1
    43    19    39 1
    44    23    40 1
    45    24    41 1
    46    25    42 1
    47    26    43 1
    48    27    44 1
    49    28    45 1
@<TRIPOS>SUBSTRUCTURE
     1 37J         1 TEMP              0 ****  ****    0 ROOT
