@<TRIPOS>MOLECULE
molecule
   97   100     1     0     0
SMALL
bcc


@<TRIPOS>ATOM
      1 CAD          0.0000     0.0000     0.0000 c3         1 37L       0.125200
      2 OBE          1.4290     0.0000     0.0000 os         1 37L      -0.313900
      3 CBS          2.0460     0.0000     1.2120 ca         1 37L       0.154600
      4 CAS          1.2910    -0.0050     2.3750 ca         1 37L      -0.227000
      5 CBU          3.4340     0.0000     1.2860 ca         1 37L       0.051100
      6 OBG          4.1780    -0.0010     0.1470 os         1 37L      -0.328900
      7 CAF          4.5040     1.2730    -0.4160 c3         1 37L       0.131700
      8 CBT          4.0590    -0.0000     2.5270 ca         1 37L       0.154600
      9 OBF          5.4180     0.0010     2.6050 os         1 37L      -0.313900
     10 CAE          5.9920     0.0010     3.9140 c3         1 37L       0.125200
     11 CAT          3.2980     0.0010     3.6850 ca         1 37L      -0.227000
     12 CBP          1.9170    -0.0110     3.6080 ca         1 37L      -0.007300
     13 CBW          1.0940    -0.0100     4.8690 c3         1 37L      -0.089400
     14 CAW          0.3010    -1.3150     4.9620 c3         1 37L      -0.050200
     15 CAK          1.2530    -2.4720     5.1180 c2         1 37L      -0.166200
     16 CAA          1.1220    -3.2970     6.1280 c2         1 37L      -0.231000
     17 CBL          0.1400     1.1560     4.8450 c          1 37L       0.664100
     18 OAI          0.1110     1.8970     3.8860 o          1 37L      -0.568100
     19 N           -0.6810     1.3770     5.8920 n          1 37L      -0.488800
     20 CBB         -0.5820     0.5560     7.1070 c3         1 37L       0.099000
     21 CAV         -0.4200     1.4840     8.3160 c3         1 37L      -0.101400
     22 CAU         -1.5650     2.4980     8.3340 c3         1 37L      -0.082400
     23 CB          -1.5160     3.3490     7.0620 c3         1 37L      -0.097400
     24 CA          -1.6880     2.4460     5.8420 c3         1 37L       0.077700
     25 C           -1.5030     3.2560     4.5850 c          1 37L       0.658100
     26 O           -2.2420     3.0880     3.6440 o          1 37L      -0.539000
     27 OBI         -0.5180     4.1660     4.5100 os         1 37L      -0.420900
     28 CBV         -0.4850     5.0070     3.3270 c3         1 37L       0.209400
     29 CBA          0.9220     5.5790     3.1480 c3         1 37L      -0.065400
     30 CAY          1.9120     4.4350     2.9170 c3         1 37L      -0.035100
     31 CBM          3.2780     5.0040     2.6320 ca         1 37L      -0.069300
     32 CAQ          3.6990     5.1700     1.3270 ca         1 37L      -0.185000
     33 CAO          4.1070     5.3640     3.6790 ca         1 37L      -0.130000
     34 CAP          5.3610     5.8860     3.4250 ca         1 37L      -0.189000
     35 CBQ          5.7910     6.0500     2.1180 ca         1 37L       0.102100
     36 OBC          7.0250     6.5630     1.8650 os         1 37L      -0.316900
     37 CAB          7.8260     6.9120     2.9950 c3         1 37L       0.129700
     38 CBR          4.9530     5.6980     1.0640 ca         1 37L       0.117100
     39 OBD          5.3700     5.8550    -0.2210 os         1 37L      -0.319900
     40 CAC          4.4580     5.4730    -1.2510 c3         1 37L       0.125700
     41 CBO         -1.4700     6.1360     3.4860 ca         1 37L      -0.090300
     42 CAR         -2.2400     6.5370     2.4110 ca         1 37L      -0.152000
     43 CAN         -1.6080     6.7660     4.7080 ca         1 37L      -0.184000
     44 CAL         -2.5110     7.8030     4.8580 ca         1 37L      -0.102000
     45 CAM         -3.2800     8.2100     3.7850 ca         1 37L      -0.226000
     46 CBN         -3.1470     7.5760     2.5580 ca         1 37L       0.167100
     47 OBH         -3.9040     7.9740     1.5020 os         1 37L      -0.284900
     48 CAX         -4.8170     9.0490     1.7250 c3         1 37L       0.018400
     49 CBJ         -5.5640     9.3490     0.4510 c          1 37L       0.895600
     50 OAJ         -6.4810    10.3290     0.4250 o          1 37L      -0.827300
     51 OAG         -5.3390     8.7050    -0.5460 o          1 37L      -0.827300
     52 H1          -0.3610    -0.1400    -1.0120 h1         1 37L       0.042867
     53 H2          -0.3610    -0.8060     0.6270 h1         1 37L       0.042867
     54 H3          -0.3610     0.9460     0.3840 h1         1 37L       0.042867
     55 H4           0.2090    -0.0140     2.3180 ha         1 37L       0.143500
     56 H5           5.1140     1.1310    -1.3000 h1         1 37L       0.035033
     57 H6           3.5930     1.7930    -0.6850 h1         1 37L       0.035033
     58 H7           5.0530     1.8590     0.3120 h1         1 37L       0.035033
     59 H8           5.7160     0.9130     4.4290 h1         1 37L       0.042867
     60 H9           7.0710    -0.0580     3.8340 h1         1 37L       0.042867
     61 H10          5.6240    -0.8530     4.4690 h1         1 37L       0.042867
     62 H11          3.7850    -0.0020     4.6530 ha         1 37L       0.143500
     63 H12          1.7480     0.0760     5.7280 hc         1 37L       0.072700
     64 H13         -0.3630    -1.2750     5.8170 hc         1 37L       0.060200
     65 H14         -0.2830    -1.4480     4.0590 hc         1 37L       0.060200
     66 H15          2.0460    -2.6220     4.3960 ha         1 37L       0.138000
     67 H16          1.8080    -4.1280     6.2410 ha         1 37L       0.110000
     68 H17          0.3290    -3.1470     6.8510 ha         1 37L       0.110000
     69 H18          0.2790    -0.0970     7.0340 h1         1 37L       0.052200
     70 H19         -1.4840    -0.0330     7.2210 h1         1 37L       0.052200
     71 H20         -0.4440     0.8970     9.2260 hc         1 37L       0.049200
     72 H21          0.5250     2.0090     8.2430 hc         1 37L       0.049200
     73 H22         -1.4640     3.1400     9.2000 hc         1 37L       0.045200
     74 H23         -2.5110     1.9710     8.3770 hc         1 37L       0.045200
     75 H24         -0.5600     3.8550     7.0040 hc         1 37L       0.069200
     76 H25         -2.3170     4.0780     7.0860 hc         1 37L       0.069200
     77 H26         -2.6790     2.0090     5.8540 h1         1 37L       0.084700
     78 H27         -0.7490     4.4170     2.4570 h1         1 37L       0.079700
     79 H28          0.9350     6.2450     2.2940 hc         1 37L       0.059200
     80 H29          1.2050     6.1270     4.0380 hc         1 37L       0.059200
     81 H30          1.5860     3.8400     2.0720 hc         1 37L       0.060700
     82 H31          1.9570     3.8120     3.8020 hc         1 37L       0.060700
     83 H32          3.0440     4.8950     0.5080 ha         1 37L       0.145000
     84 H33          3.7720     5.2360     4.7020 ha         1 37L       0.131000
     85 H34          6.0080     6.1670     4.2470 ha         1 37L       0.132000
     86 H35          8.7790     7.2990     2.6570 h1         1 37L       0.035700
     87 H36          7.9890     6.0340     3.6080 h1         1 37L       0.035700
     88 H37          7.3160     7.6690     3.5790 h1         1 37L       0.035700
     89 H38          4.1010     4.4680    -1.0630 h1         1 37L       0.040700
     90 H39          4.9620     5.5040    -2.2100 h1         1 37L       0.040700
     91 H40          3.6180     6.1580    -1.2620 h1         1 37L       0.040700
     92 H41         -2.1350     6.0410     1.4530 ha         1 37L       0.146000
     93 H42         -1.0060     6.4480     5.5510 ha         1 37L       0.117000
     94 H43         -2.6160     8.2960     5.8170 ha         1 37L       0.113000
     95 H44         -3.9870     9.0220     3.9030 ha         1 37L       0.145000
     96 H45         -4.2670     9.9300     2.0360 h1         1 37L       0.026200
     97 H46         -5.5210     8.7710     2.5000 h1         1 37L       0.026200
@<TRIPOS>BOND
     1    16    15 2   
     2    15    14 1   
     3    14    13 1   
     4    18    17 2   
     5    17    13 1   
     6    17    19 1   
     7    23    24 1   
     8    23    22 1   
     9    24    19 1   
    10    24    25 1   
    11    13    12 1   
    12    19    20 1   
    13    22    21 1   
    14    21    20 1   
    15    25    26 2   
    16    25    27 1   
    17    12    11 ar  
    18    12     4 ar  
    19    11     8 ar  
    20    39    40 1   
    21    39    38 1   
    22    10     9 1   
    23    27    28 1   
    24    36    37 1   
    25    36    35 1   
    26     4     3 ar  
    27    38    35 ar  
    28    38    32 ar  
    29     8     9 1   
    30     8     5 ar  
    31    35    34 ar  
    32    32    31 ar  
    33    28    29 1   
    34    28    41 1   
    35    29    30 1   
    36     3     5 ar  
    37     3     2 1   
    38    34    33 ar  
    39     5     6 1   
    40    31    33 ar  
    41    31    30 1   
    42    41    43 ar  
    43    41    42 ar  
    44     1     2 1   
    45    43    44 ar  
    46    42    46 ar  
    47     6     7 1   
    48    44    45 ar  
    49    46    45 ar  
    50    46    47 1   
    51    47    48 1   
    52    48    49 1   
    53    49    51 1   
    54    49    50 1   
    55     1    52 1   
    56     1    53 1   
    57     1    54 1   
    58     4    55 1   
    59     7    56 1   
    60     7    57 1   
    61     7    58 1   
    62    10    59 1   
    63    10    60 1   
    64    10    61 1   
    65    11    62 1   
    66    13    63 1   
    67    14    64 1   
    68    14    65 1   
    69    15    66 1   
    70    16    67 1   
    71    16    68 1   
    72    20    69 1   
    73    20    70 1   
    74    21    71 1   
    75    21    72 1   
    76    22    73 1   
    77    22    74 1   
    78    23    75 1   
    79    23    76 1   
    80    24    77 1   
    81    28    78 1   
    82    29    79 1   
    83    29    80 1   
    84    30    81 1   
    85    30    82 1   
    86    32    83 1   
    87    33    84 1   
    88    34    85 1   
    89    37    86 1   
    90    37    87 1   
    91    37    88 1   
    92    40    89 1   
    93    40    90 1   
    94    40    91 1   
    95    42    92 1   
    96    43    93 1   
    97    44    94 1   
    98    45    95 1   
    99    48    96 1   
   100    48    97 1   
@<TRIPOS>SUBSTRUCTURE
     1 37L         1 TEMP              0 ****  ****    0 ROOT
