@<TRIPOS>MOLECULE
37L
   97   100     1     0     0
SMALL
bcc


@<TRIPOS>ATOM
      1 CAD          0.0000     0.0000     0.0000 c3         1 37L       0.237200
      2 OBE          1.4290     0.0000     0.0000 os         1 37L      -0.293900
      3 CBS          2.0460     0.0000     1.2120 ca         1 37L       0.162600
      4 CAS          1.2910    -0.0050     2.3750 ca         1 37L      -0.223000
      5 CBU          3.4340     0.0000     1.2860 ca         1 37L       0.042100
      6 OBG          4.1780    -0.0010     0.1470 os         1 37L      -0.312900
      7 CAF          4.5040     1.2730    -0.4160 c3         1 37L       0.244700
      8 CBT          4.0590    -0.0000     2.5270 ca         1 37L       0.162600
      9 OBF          5.4180     0.0010     2.6050 os         1 37L      -0.293900
     10 CAE          5.9920     0.0010     3.9140 c3         1 37L       0.237200
     11 CAT          3.2980     0.0010     3.6850 ca         1 37L      -0.223000
     12 CBP          1.9170    -0.0110     3.6080 ca         1 37L      -0.002300
     13 CBW          1.0940    -0.0100     4.8690 c3         1 37L      -0.061400
     14 CAW          0.3010    -1.3150     4.9620 c3         1 37L      -0.003200
     15 CAK          1.2530    -2.4720     5.1180 c2         1 37L      -0.148200
     16 CAA          1.1220    -3.2970     6.1280 c2         1 37L      -0.177000
     17 CBL          0.1400     1.1560     4.8450 c          1 37L       0.588100
     18 OAI          0.1110     1.8970     3.8860 o          1 37L      -0.608100
     19 N           -0.6810     1.3770     5.8920 n          1 37L      -0.151800
     20 CBB         -0.5820     0.5560     7.1070 c3         1 37L       0.033000
     21 CAV         -0.4200     1.4840     8.3160 c3         1 37L      -0.043400
     22 CAU         -1.5650     2.4980     8.3340 c3         1 37L      -0.025400
     23 CB          -1.5160     3.3490     7.0620 c3         1 37L      -0.048400
     24 CA          -1.6880     2.4460     5.8420 c3         1 37L      -0.013300
     25 C           -1.5030     3.2560     4.5850 c          1 37L       0.720100
     26 O           -2.2420     3.0880     3.6440 o          1 37L      -0.573000
     27 OBI         -0.5180     4.1660     4.5100 os         1 37L      -0.401900
     28 CBV         -0.4850     5.0070     3.3270 c3         1 37L       0.252400
     29 CBA          0.9220     5.5790     3.1480 c3         1 37L      -0.026400
     30 CAY          1.9120     4.4350     2.9170 c3         1 37L       0.021900
     31 CBM          3.2780     5.0040     2.6320 ca         1 37L      -0.071300
     32 CAQ          3.6990     5.1700     1.3270 ca         1 37L      -0.173000
     33 CAO          4.1070     5.3640     3.6790 ca         1 37L      -0.103000
     34 CAP          5.3610     5.8860     3.4250 ca         1 37L      -0.178000
     35 CBQ          5.7910     6.0500     2.1180 ca         1 37L       0.103100
     36 OBC          7.0250     6.5630     1.8650 os         1 37L      -0.295900
     37 CAB          7.8260     6.9120     2.9950 c3         1 37L       0.241700
     38 CBR          4.9530     5.6980     1.0640 ca         1 37L       0.120100
     39 OBD          5.3700     5.8550    -0.2210 os         1 37L      -0.298900
     40 CAC          4.4580     5.4730    -1.2510 c3         1 37L       0.236700
     41 CBO         -1.4700     6.1360     3.4860 ca         1 37L      -0.100300
     42 CAR         -2.2400     6.5370     2.4110 ca         1 37L      -0.132000
     43 CAN         -1.6080     6.7660     4.7080 ca         1 37L      -0.170000
     44 CAL         -2.5110     7.8030     4.8580 ca         1 37L      -0.069000
     45 CAM         -3.2800     8.2100     3.7850 ca         1 37L      -0.219000
     46 CBN         -3.1470     7.5760     2.5580 ca         1 37L       0.175100
     47 OBH         -3.9040     7.9740     1.5020 os         1 37L      -0.255900
     48 CAX         -4.8170     9.0490     1.7250 c3         1 37L       0.081400
     49 CBJ         -5.5640     9.3490     0.4510 c          1 37L       0.975600
     50 OAJ         -6.4810    10.3290     0.4250 o          1 37L      -0.882800
     51 OAG         -5.3390     8.7050    -0.5460 o          1 37L      -0.882800
     52 H1          -0.3610    -0.1400    -1.0120 h1         1 37L      -0.000633
     53 H2          -0.3610     0.9460     0.3840 h1         1 37L      -0.000633
     54 H3          -0.3610    -0.8060     0.6270 h1         1 37L      -0.000633
     55 H4           0.2090    -0.0140     2.3180 ha         1 37L       0.132000
     56 H5           4.9600     1.8970     0.3430 h1         1 37L      -0.007300
     57 H6           5.1970     1.1380    -1.2370 h1         1 37L      -0.007300
     58 H7           3.6010     1.7480    -0.7800 h1         1 37L      -0.007300
     59 H8           5.6630     0.8810     4.4520 h1         1 37L      -0.000633
     60 H9           5.6760    -0.8880     4.4460 h1         1 37L      -0.000633
     61 H10          7.0720     0.0090     3.8340 h1         1 37L      -0.000633
     62 H11          3.7850    -0.0020     4.6530 ha         1 37L       0.132000
     63 H12          1.7480     0.0760     5.7280 hc         1 37L       0.044700
     64 H13         -0.2830    -1.4480     4.0590 hc         1 37L       0.033700
     65 H14         -0.3630    -1.2750     5.8170 hc         1 37L       0.033700
     66 H15          2.0460    -2.6220     4.3950 ha         1 37L       0.115000
     67 H16          0.3290    -3.1470     6.8510 ha         1 37L       0.083000
     68 H17          1.8070    -4.1280     6.2410 ha         1 37L       0.083000
     69 H18          0.2790    -0.0970     7.0340 h1         1 37L       0.031700
     70 H19         -1.4840    -0.0330     7.2210 h1         1 37L       0.031700
     71 H20          0.5250     2.0090     8.2420 hc         1 37L       0.021200
     72 H21         -0.4430     0.8980     9.2260 hc         1 37L       0.021200
     73 H22         -2.5110     1.9710     8.3770 hc         1 37L       0.017700
     74 H23         -1.4640     3.1400     9.2000 hc         1 37L       0.017700
     75 H24         -0.5600     3.8550     7.0040 hc         1 37L       0.039700
     76 H25         -2.3170     4.0790     7.0860 hc         1 37L       0.039700
     77 H26         -2.6790     2.0090     5.8540 h1         1 37L       0.053700
     78 H27         -0.7490     4.4170     2.4570 h1         1 37L       0.048700
     79 H28          0.9350     6.2450     2.2940 hc         1 37L       0.028200
     80 H29          1.2050     6.1270     4.0380 hc         1 37L       0.028200
     81 H30          1.9570     3.8120     3.8020 hc         1 37L       0.031200
     82 H31          1.5860     3.8400     2.0720 hc         1 37L       0.031200
     83 H32          3.0440     4.8950     0.5080 ha         1 37L       0.130000
     84 H33          3.7720     5.2360     4.7020 ha         1 37L       0.106000
     85 H34          6.0080     6.1670     4.2470 ha         1 37L       0.115000
     86 H35          8.0510     6.0210     3.5680 h1         1 37L      -0.006967
     87 H36          8.7490     7.3670     2.6570 h1         1 37L      -0.006967
     88 H37          7.2850     7.6140     3.6180 h1         1 37L      -0.006967
     89 H38          3.6120     6.1500    -1.2540 h1         1 37L      -0.001633
     90 H39          4.9580     5.5160    -2.2110 h1         1 37L      -0.001633
     91 H40          4.1100     4.4630    -1.0690 h1         1 37L      -0.001633
     92 H41         -2.1350     6.0410     1.4530 ha         1 37L       0.123000
     93 H42         -1.0060     6.4480     5.5510 ha         1 37L       0.099000
     94 H43         -2.6160     8.2960     5.8170 ha         1 37L       0.087000
     95 H44         -3.9870     9.0220     3.9030 ha         1 37L       0.131000
     96 H45         -4.2670     9.9300     2.0360 h1         1 37L      -0.004800
     97 H46         -5.5210     8.7710     2.5000 h1         1 37L      -0.004800
@<TRIPOS>BOND
     1     1     2 1   
     2     1    52 1   
     3     1    53 1   
     4     1    54 1   
     5     2     3 1   
     6     3     4 ar  
     7     3     5 ar  
     8     4    12 ar  
     9     4    55 1   
    10     5     6 1   
    11     5     8 ar  
    12     6     7 1   
    13     7    56 1   
    14     7    57 1   
    15     7    58 1   
    16     8     9 1   
    17     8    11 ar  
    18     9    10 1   
    19    10    59 1   
    20    10    60 1   
    21    10    61 1   
    22    11    12 ar  
    23    11    62 1   
    24    12    13 1   
    25    13    14 1   
    26    13    17 1   
    27    13    63 1   
    28    14    15 1   
    29    14    64 1   
    30    14    65 1   
    31    15    16 2   
    32    15    66 1   
    33    16    67 1   
    34    16    68 1   
    35    17    18 2   
    36    17    19 1   
    37    19    20 1   
    38    19    24 1   
    39    20    21 1   
    40    20    69 1   
    41    20    70 1   
    42    21    22 1   
    43    21    71 1   
    44    21    72 1   
    45    22    23 1   
    46    22    73 1   
    47    22    74 1   
    48    23    24 1   
    49    23    75 1   
    50    23    76 1   
    51    24    25 1   
    52    24    77 1   
    53    25    26 2   
    54    25    27 1   
    55    27    28 1   
    56    28    29 1   
    57    28    41 1   
    58    28    78 1   
    59    29    30 1   
    60    29    79 1   
    61    29    80 1   
    62    30    31 1   
    63    30    81 1   
    64    30    82 1   
    65    31    32 ar  
    66    31    33 ar  
    67    32    38 ar  
    68    32    83 1   
    69    33    34 ar  
    70    33    84 1   
    71    34    35 ar  
    72    34    85 1   
    73    35    36 1   
    74    35    38 ar  
    75    36    37 1   
    76    37    86 1   
    77    37    87 1   
    78    37    88 1   
    79    38    39 1   
    80    39    40 1   
    81    40    89 1   
    82    40    90 1   
    83    40    91 1   
    84    41    42 ar  
    85    41    43 ar  
    86    42    46 ar  
    87    42    92 1   
    88    43    44 ar  
    89    43    93 1   
    90    44    45 ar  
    91    44    94 1   
    92    45    46 ar  
    93    45    95 1   
    94    46    47 1   
    95    47    48 1   
    96    48    49 1   
    97    48    96 1   
    98    48    97 1   
    99    49    50 1   
   100    49    51 1   
@<TRIPOS>SUBSTRUCTURE
     1 37L         1 TEMP              0 ****  ****    0 ROOT
