@<TRIPOS>MOLECULE
37N
   41    43     1     0     0
SMALL
bcc


@<TRIPOS>ATOM
      1 CAP         0.0360    1.0360    0.0130 c3        1 37N     -0.141400
      2 CAK         1.3210    0.3420   -0.0310 cc        1 37N      0.267000
      3 CAJ         2.1950   -0.1740    0.9150 cd        1 37N     -0.241600
      4 CAB         2.0430   -0.1720    2.3500 ca        1 37N     -0.025000
      5 CAC         2.4860   -1.2600    3.1150 ca        1 37N     -0.175000
      6 CAD         2.2930   -1.2710    4.5100 ca        1 37N      0.131600
      7 NAQ         2.7950   -2.3360    5.2850 nh        1 37N     -0.777500
      8 SAR         3.2420   -2.2930    6.8460 sy        1 37N      1.513200
      9 CAS         4.3670   -1.0440    6.9410 ca        1 37N     -0.387500
     10 CAT         3.9870    0.2840    7.1710 ca        1 37N     -0.007500
     11 CAU         4.9470    1.2940    7.2670 ca        1 37N     -0.162000
     12 CAV         6.2980    0.9860    7.1380 ca        1 37N     -0.076000
     13 CAW         6.6930   -0.3370    6.9160 ca        1 37N     -0.162000
     14 CAX         5.7340   -1.3370    6.8170 ca        1 37N     -0.007500
     15 OAY         2.1660   -2.0210    7.7080 o         1 37N     -0.663800
     16 OAZ         3.9080   -3.5260    7.0960 o         1 37N     -0.663800
     17 CAE         1.6150   -0.1940    5.1190 ca        1 37N     -0.153000
     18 CAF         1.2380    0.9140    4.3640 ca        1 37N     -0.098600
     19 CAG         0.6620    2.1380    5.0720 c         1 37N      0.912200
     20 OAH         0.9930    2.3050    6.2790 o         1 37N     -0.822300
     21 OAI        -0.0790    2.9110    4.4060 o         1 37N     -0.822300
     22 CAA         1.4380    0.9210    2.9830 ca        1 37N     -0.112000
     23 CAN         3.3080   -0.7090    0.1150 cd        1 37N      0.328600
     24 CAO         4.5230   -1.3490    0.6530 c3        1 37N     -0.131400
     25 NAM         3.0430   -0.5020   -1.1920 nc        1 37N     -0.392300
     26 OAL         1.8820    0.1110   -1.3110 os        1 37N     -0.136100
     27 H1         -0.6030    0.7440   -0.8570 hc        1 37N      0.069033
     28 H2         -0.4930    0.7880    0.9690 hc        1 37N      0.069033
     29 H3          0.2000    2.1440   -0.0200 hc        1 37N      0.069033
     30 H4          2.9720   -2.1100    2.6120 ha        1 37N      0.116000
     31 H5          2.9600   -3.1620    4.7560 hn        1 37N      0.445800
     32 H6          2.9160    0.5590    7.2710 ha        1 37N      0.170500
     33 H7          4.6200    2.3330    7.4310 ha        1 37N      0.141000
     34 H8          7.0560    1.7800    7.2070 ha        1 37N      0.125000
     35 H9          7.7600   -0.5840    6.8180 ha        1 37N      0.141000
     36 H10         6.0440   -2.3840    6.6530 ha        1 37N      0.170500
     37 H11         1.3700   -0.1930    6.1960 ha        1 37N      0.169000
     38 H13         1.1080    1.8010    2.4080 ha        1 37N      0.154000
     39 H14         5.4050   -1.1820   -0.0140 hc        1 37N      0.054700
     40 H15         4.3580   -2.4520    0.7510 hc        1 37N      0.054700
     41 H16         4.7480   -0.9290    1.6650 hc        1 37N      0.054700
@<TRIPOS>BOND
     1    1    2 1   
     2    1   27 1   
     3    1   28 1   
     4    1   29 1   
     5    2    3 2   
     6    2   26 1   
     7    3    4 1   
     8    3   23 1   
     9    4    5 ar  
    10    4   22 ar  
    11    5    6 ar  
    12    5   30 1   
    13    6    7 1   
    14    6   17 ar  
    15    7    8 1   
    16    7   31 1   
    17    8    9 1   
    18    8   15 2   
    19    8   16 2   
    20    9   10 ar  
    21    9   14 ar  
    22   10   11 ar  
    23   10   32 1   
    24   11   12 ar  
    25   11   33 1   
    26   12   13 ar  
    27   12   34 1   
    28   13   14 ar  
    29   13   35 1   
    30   14   36 1   
    31   17   18 ar  
    32   17   37 1   
    33   18   19 1   
    34   18   22 ar  
    35   19   20 1   
    36   19   21 1   
    37   22   38 1   
    38   23   24 1   
    39   23   25 2   
    40   24   39 1   
    41   24   40 1   
    42   24   41 1   
    43   25   26 1   
@<TRIPOS>SUBSTRUCTURE
     1 37N         1 TEMP              0 ****  ****    0 ROOT
