@<TRIPOS>MOLECULE
molecule
   87    92     1     0     0
SMALL
bcc


@<TRIPOS>ATOM
      1 C01          0.0000     0.0000     0.0000 ca         1 37O       0.532200
      2 N02          1.3290     0.0000     0.0000 nb         1 37O      -0.809000
      3 C03          2.0070     0.0000     1.1370 ca         1 37O       0.970900
      4 N04          1.4030    -0.0000     2.3180 nb         1 37O      -0.842000
      5 C05          0.0790    -0.0000     2.3920 ca         1 37O       0.651200
      6 C06         -0.6580     0.0050     1.2060 ca         1 37O      -0.448900
      7 N07         -0.5790     0.0010     3.6110 n          1 37O      -0.438300
      8 C08         -1.9130    -0.0000     3.7200 c          1 37O       0.833500
      9 N09         -2.7390     0.0000     2.6590 n          1 37O      -0.401000
     10 C10         -2.1630     0.0050     1.3010 c3         1 37O       0.171300
     11 N11          3.3910    -0.0000     1.0920 nu         1 37O      -0.750300
     12 C12          4.0510    -0.0970    -0.1390 ca         1 37O       0.125600
     13 C13          3.5140     0.5130    -1.2650 ca         1 37O      -0.118500
     14 C14          4.1650     0.4170    -2.4790 ca         1 37O      -0.153500
     15 C15          5.3570    -0.2880    -2.5740 ca         1 37O       0.091600
     16 C16          5.8960    -0.8970    -1.4480 ca         1 37O      -0.153500
     17 C17          5.2480    -0.7970    -0.2330 ca         1 37O      -0.118500
     18 N18          6.0170    -0.3850    -3.8040 nh         1 37O      -0.598000
     19 C19          7.2530    -1.1700    -3.6790 c3         1 37O       0.165300
     20 C20          7.9020    -1.3200    -5.0580 c3         1 37O       0.160300
     21 N21          8.1810     0.0130    -5.6110 n3         1 37O      -0.734600
     22 C22          6.9450     0.7980    -5.7370 c3         1 37O       0.160300
     23 C23          6.2970     0.9480    -4.3590 c3         1 37O       0.165300
     24 C24          8.8730    -0.0890    -6.9030 c3         1 37O       0.152100
     25 C25         -4.1270    -0.0000     2.8400 ca         1 37O       0.143600
     26 C26         -4.7520     1.0940     3.4240 ca         1 37O      -0.190000
     27 C27         -6.1260     1.0940     3.6030 ca         1 37O       0.184100
     28 C28         -6.8770     0.0010     3.1990 ca         1 37O      -0.315000
     29 C29         -6.2550    -1.0930     2.6150 ca         1 37O       0.184100
     30 C30         -4.8810    -1.0910     2.4300 ca         1 37O      -0.190000
     31 O31         -6.9930    -2.1630     2.2190 os         1 37O      -0.323400
     32 O32         -6.7370     2.1640     4.1760 os         1 37O      -0.323400
     33 C33         -8.4040    -2.0950     2.4350 c3         1 37O       0.129700
     34 C34         -8.1560     2.0950     4.3290 c3         1 37O       0.129700
     35 O35         -2.4020     0.0010     4.8330 o          1 37O      -0.658500
     36 C36          0.2240     0.0010     4.8370 c3         1 37O       0.164300
     37 C37          0.4980    -1.4200     5.2580 ca         1 37O      -0.143300
     38 C38         -0.3820    -2.0720     6.1020 ca         1 37O      -0.084000
     39 C39         -0.1320    -3.3740     6.4890 ca         1 37O      -0.162500
     40 C40          1.0030    -4.0290     6.0300 ca         1 37O       0.064600
     41 C41          1.8850    -3.3700     5.1820 ca         1 37O      -0.162500
     42 C42          1.6270    -2.0710     4.7940 ca         1 37O      -0.084000
     43 N43          1.2590    -5.3470     6.4210 ns         1 37O      -0.477100
     44 C44          0.2390    -6.1550     6.7730 c          1 37O       0.655100
     45 C45          0.5220    -7.5310     7.3210 c3         1 37O      -0.160400
     46 C46         -0.7980    -8.2340     7.6400 c3         1 37O      -0.077100
     47 O47         -0.9060    -5.7750     6.6500 o          1 37O      -0.587100
     48 H1          -0.5530     0.0000    -0.9310 h4         1 37O       0.034100
     49 H2          -2.5300     0.8850     0.7870 h1         1 37O       0.050700
     50 H3          -2.5290    -0.8720     0.7810 h1         1 37O       0.050700
     51 H4           3.9190     0.1030     1.9360 hn         1 37O       0.464800
     52 H5           2.5830     1.0630    -1.1910 ha         1 37O       0.148000
     53 H6           3.7450     0.8920    -3.3580 ha         1 37O       0.139000
     54 H7           6.8270    -1.4450    -1.5210 ha         1 37O       0.139000
     55 H8           5.6680    -1.2720     0.6460 ha         1 37O       0.148000
     56 H9           7.9380    -0.6600    -3.0120 h1         1 37O       0.049200
     57 H10          7.2260    -1.8500    -5.7180 h1         1 37O       0.042700
     58 H11          7.1800     1.7790    -6.1320 h1         1 37O       0.042700
     59 H12          5.3700     1.5000    -4.4550 h1         1 37O       0.049200
     60 H13          9.7950    -0.6440    -6.7760 h1         1 37O       0.032700
     61 H14          9.0970     0.9040    -7.2720 h1         1 37O       0.032700
     62 H15          8.2380    -0.6040    -7.6130 h1         1 37O       0.032700
     63 H16         -4.1640     1.9480     3.7400 ha         1 37O       0.154500
     64 H17         -7.9510     0.0000     3.3410 ha         1 37O       0.141000
     65 H18         -4.3940    -1.9450     1.9740 ha         1 37O       0.154500
     66 H19         -8.8680    -3.0050     2.0760 h1         1 37O       0.041367
     67 H20         -8.6020    -1.9810     3.4940 h1         1 37O       0.041367
     68 H21         -8.8110    -1.2460     1.8980 h1         1 37O       0.041367
     69 H22         -8.6190     1.9810     3.3570 h1         1 37O       0.041367
     70 H23         -8.5130     3.0060     4.7950 h1         1 37O       0.041367
     71 H24         -8.4120     1.2470     4.9530 h1         1 37O       0.041367
     72 H25          1.1620     0.5110     4.6550 h1         1 37O       0.080200
     73 H26         -0.3190     0.5120     5.6230 h1         1 37O       0.080200
     74 H27         -1.2680    -1.5620     6.4600 ha         1 37O       0.150000
     75 H28         -0.8220    -3.8850     7.1500 ha         1 37O       0.148000
     76 H29          2.7710    -3.8790     4.8210 ha         1 37O       0.148000
     77 H30          2.3150    -1.5570     4.1340 ha         1 37O       0.150000
     78 H31          2.2000    -5.6850     6.4560 hn         1 37O       0.321500
     79 H32          1.1130    -7.4450     8.2250 hc         1 37O       0.059200
     80 H33          1.0690    -8.1070     6.5850 hc         1 37O       0.059200
     81 H34         -0.5970    -9.2450     7.9750 hc         1 37O       0.045033
     82 H35         -1.4160    -8.2650     6.7500 hc         1 37O       0.045033
     83 H36         -1.3170    -7.6920     8.4210 hc         1 37O       0.045033
     84 H37          7.0180    -2.1510    -3.2830 h1         1 37O       0.049200
     85 H38          8.8290    -1.8720    -4.9610 h1         1 37O       0.042700
     86 H39          6.2600     0.2880    -6.4030 h1         1 37O       0.042700
     87 H40          6.9730     1.4770    -3.6980 h1         1 37O       0.049200
@<TRIPOS>BOND
     1    36     7 1
     2    36    37 1
     3    22    23 1
     4    22    21 1
     5    38    37 ar
     6    38    39 ar
     7    23    18 1
     8    32    34 1
     9    32    27 1
    10     7     8 1
    11     7     5 1
    12    37    42 ar
    13    24    21 1
    14    35     8 2
    15    39    40 ar
    16    21    20 1
    17    47    44 2
    18     8     9 1
    19    26    27 ar
    20    26    25 ar
    21     5     4 ar
    22     5     6 ar
    23     4     3 ar
    24    14    13 ar
    25    14    15 ar
    26    18    15 1
    27    18    19 1
    28    10     6 1
    29    10     9 1
    30    13    12 ar
    31    15    16 ar
    32    27    28 ar
    33     6     1 ar
    34     9    25 1
    35     3    11 1
    36     3     2 ar
    37    12    11 1
    38    12    17 ar
    39    16    17 ar
    40    42    41 ar
    41     1     2 ar
    42    20    19 1
    43    25    30 ar
    44    40    41 ar
    45    40    43 1
    46    44    43 1
    47    44    45 1
    48    28    29 ar
    49    46    45 1
    50    30    29 ar
    51    29    31 1
    52    31    33 1
    53     1    48 1
    54    10    49 1
    55    10    50 1
    56    11    51 1
    57    13    52 1
    58    14    53 1
    59    16    54 1
    60    17    55 1
    61    19    56 1
    62    20    57 1
    63    22    58 1
    64    23    59 1
    65    24    60 1
    66    24    61 1
    67    24    62 1
    68    26    63 1
    69    28    64 1
    70    30    65 1
    71    33    66 1
    72    33    67 1
    73    33    68 1
    74    34    69 1
    75    34    70 1
    76    34    71 1
    77    36    72 1
    78    36    73 1
    79    38    74 1
    80    39    75 1
    81    41    76 1
    82    42    77 1
    83    43    78 1
    84    45    79 1
    85    45    80 1
    86    46    81 1
    87    46    82 1
    88    46    83 1
    89    19    84 1
    90    20    85 1
    91    22    86 1
    92    23    87 1
@<TRIPOS>SUBSTRUCTURE
     1 37O         1 TEMP              0 ****  ****    0 ROOT
