@<TRIPOS>MOLECULE
molecule
   72    77     1     0     0
SMALL
bcc


@<TRIPOS>ATOM
      1 O2S          0.0000     0.0000     0.0000 o          1 37P      -0.630300
      2 S            1.4210     0.0000     0.0000 s6         1 37P       1.657100
      3 O1S          2.1990     0.0000     1.1890 o          1 37P      -0.630300
      4 O5'          1.8500    -1.2250    -0.7940 os         1 37P      -0.530500
      5 C5'          3.2530    -1.4930    -0.7370 c3         1 37P       0.147400
      6 C4'          3.5680    -2.7400    -1.5650 c3         1 37P       0.146100
      7 C3'          5.0610    -3.1040    -1.4160 c3         1 37P       0.087100
      8 O3'          5.2320    -4.1790    -0.4920 oh         1 37P      -0.572800
      9 C2'          5.4380    -3.5470    -2.8570 c3         1 37P       0.086100
     10 O2'          5.0930    -4.9170    -3.0800 oh         1 37P      -0.563800
     11 C1'          4.5440    -2.6030    -3.6980 c3         1 37P       0.264800
     12 N9A          4.2780    -3.1910    -5.0130 na         1 37P      -0.246000
     13 C4A          5.0850    -3.1080    -6.1190 ca         1 37P       0.465800
     14 N3A          6.2560    -2.5380    -6.3850 nb         1 37P      -0.811000
     15 C2A          6.7940    -2.6380    -7.5820 ca         1 37P       0.738900
     16 N1A          6.2120    -3.2940    -8.5680 nb         1 37P      -0.836000
     17 C6A          5.0400    -3.8960    -8.3960 ca         1 37P       0.788200
     18 N6A          4.4380    -4.5830    -9.4360 nv         1 37P      -0.982500
     19 C5A          4.4260    -3.8190    -7.1350 ca         1 37P      -0.201200
     20 N7A          3.2710    -4.2920    -6.6070 nc         1 37P      -0.594100
     21 C8A          3.1840    -3.9280    -5.3600 cd         1 37P       0.461700
     22 O4'          3.3240    -2.4760    -2.9510 os         1 37P      -0.392600
     23 N45          1.8890     1.3330    -0.8650 ns         1 37P      -0.685300
     24 C44          1.3370     1.5820    -2.0690 c          1 37P       0.672100
     25 O46          0.4990     0.8310    -2.5190 o          1 37P      -0.539100
     26 C43          1.7630     2.7950    -2.8560 c3         1 37P      -0.158400
     27 C42          0.9910     2.8440    -4.1760 c3         1 37P      -0.069400
     28 C16          1.4230     4.0750    -4.9750 c3         1 37P      -0.079400
     29 C15          0.6510     4.1230    -6.2940 c3         1 37P      -0.031200
     30 C13          1.0770     5.3370    -7.0810 cc         1 37P      -0.160400
     31 C12          0.4600     6.5840    -6.8270 c          1 37P       0.573500
     32 O16         -0.4090     6.6570    -5.9700 o          1 37P      -0.536100
     33 C17          0.8220     7.7400    -7.5320 cc         1 37P      -0.284200
     34 C8           1.7900     7.6830    -8.4920 cd         1 37P       0.204400
     35 C9           2.4480     6.4000    -8.7770 cd         1 37P       0.354800
     36 C14          2.0460     5.2180    -8.0160 cd         1 37P      -0.179800
     37 O7           2.1570     8.7820    -9.1850 os         1 37P      -0.352800
     38 C6           3.1210     8.6750   -10.1260 ca         1 37P       0.277700
     39 C11          3.7410     7.4270   -10.3830 ca         1 37P       0.228300
     40 N10          3.3860     6.3340    -9.7040 nc         1 37P      -0.603000
     41 C1           3.5100     9.7930   -10.8470 ca         1 37P      -0.240300
     42 C2           4.4990     9.6840   -11.8120 ca         1 37P       0.166100
     43 O15          4.8760    10.7810   -12.5150 oh         1 37P      -0.514100
     44 C3           5.1100     8.4530   -12.0660 ca         1 37P      -0.187000
     45 C4           4.7450     7.3430   -11.3720 ca         1 37P      -0.096300
     46 H1           3.7990    -0.6470    -1.1360 h1         1 37P       0.062200
     47 H2           3.5470    -1.6600     0.2920 h1         1 37P       0.062200
     48 H3           2.9540    -3.5700    -1.2370 h1         1 37P       0.115700
     49 H4           5.6380    -2.2370    -1.1190 h1         1 37P       0.048700
     50 H5           5.9590    -3.9910     0.0780 ho         1 37P       0.410000
     51 H6           6.4870    -3.3650    -3.0550 h1         1 37P       0.067700
     52 H7           5.8590    -5.4560    -2.9680 ho         1 37P       0.417000
     53 H8           5.0190    -1.6350    -3.8030 h2         1 37P       0.088700
     54 H9           7.7500    -2.1620    -7.7650 h5         1 37P       0.058100
     55 H10          4.8910    -4.6390   -10.3270 hn         1 37P       0.451300
     56 H11          3.5520    -5.0260    -9.2970 hn         1 37P       0.451300
     57 H12          2.3640    -4.1750    -4.6970 h5         1 37P       0.096800
     58 H13          2.5690     1.9620    -0.4860 hn         1 37P       0.342500
     59 H14          2.8250     2.7380    -3.0610 hc         1 37P       0.065200
     60 H15          1.5540     3.6900    -2.2820 hc         1 37P       0.065200
     61 H16          1.2000     1.9490    -4.7500 hc         1 37P       0.063700
     62 H17         -0.0710     2.9010    -3.9710 hc         1 37P       0.063700
     63 H18          2.4850     4.0180    -5.1800 hc         1 37P       0.046200
     64 H19          1.2140     4.9700    -4.4010 hc         1 37P       0.046200
     65 H20          0.8610     3.2290    -6.8680 hc         1 37P       0.064200
     66 H21         -0.4110     4.1800    -6.0890 hc         1 37P       0.064200
     67 H22          0.3320     8.6810    -7.3150 ha         1 37P       0.170000
     68 H24          2.6350     4.3100    -8.0740 ha         1 37P       0.161000
     69 H26          3.0200    10.7440   -10.6780 ha         1 37P       0.165000
     70 H27          4.4220    10.7970   -13.3410 ho         1 37P       0.432000
     71 H28          5.8820     8.3830   -12.8230 ha         1 37P       0.152000
     72 H29          5.2260     6.3930   -11.5770 ha         1 37P       0.160000
@<TRIPOS>BOND
     1     1     2 2
     2     2     3 2
     3     2    23 1
     4     2     4 1
     5    23    24 1
     6     4     5 1
     7     8     7 1
     8     5     6 1
     9     7     6 1
    10     7     9 1
    11    24    26 1
    12    24    25 2
    13     6    22 1
    14    26    27 1
    15    27    28 1
    16     9    11 1
    17     9    10 1
    18    28    29 1
    19    22    11 1
    20    11    12 1
    21    45    44 ar
    22    45    39 ar
    23    40    39 1
    24    40    35 2
    25    36    35 1
    26    36    30 2
    27    29    30 1
    28    44    42 ar
    29    39    38 ar
    30    35    34 1
    31    30    31 1
    32    12    21 1
    33    12    13 1
    34    42    43 1
    35    42    41 ar
    36    38    41 ar
    37    38    37 1
    38    34    37 1
    39    34    33 2
    40    31    33 1
    41    31    32 2
    42    21    20 2
    43    14    13 ar
    44    14    15 ar
    45    13    19 ar
    46    15    16 ar
    47    20    19 1
    48    19    17 ar
    49    16    17 ar
    50    17    18 1
    51     5    46 1
    52     5    47 1
    53     6    48 1
    54     7    49 1
    55     8    50 1
    56     9    51 1
    57    10    52 1
    58    11    53 1
    59    15    54 1
    60    18    55 1
    61    18    56 1
    62    21    57 1
    63    23    58 1
    64    26    59 1
    65    26    60 1
    66    27    61 1
    67    27    62 1
    68    28    63 1
    69    28    64 1
    70    29    65 1
    71    29    66 1
    72    33    67 1
    73    36    68 1
    74    41    69 1
    75    43    70 1
    76    44    71 1
    77    45    72 1
@<TRIPOS>SUBSTRUCTURE
     1 37P         1 TEMP              0 ****  ****    0 ROOT
