@<TRIPOS>MOLECULE
molecule
   43    46     1     0     0
SMALL
bcc


@<TRIPOS>ATOM
      1 C4           0.0000     0.0000     0.0000 ca         1 37Q      -0.108000
      2 C5           1.3760     0.0020     2.4040 ca         1 37Q      -0.146000
      3 C6           1.3810     0.0000     0.0000 ca         1 37Q      -0.146000
      4 C7           0.5020     5.5770     4.9700 ca         1 37Q      -0.138000
      5 C8           1.1020     5.1310     6.1130 ca         1 37Q      -0.059000
      6 C10          5.5550     0.5410     2.2900 ca         1 37Q       0.226900
      7 C13         -1.7500     6.2250     1.3460 ce         1 37Q      -0.253200
      8 C15          0.8780     5.0710     3.7270 ca         1 37Q       0.072600
      9 C17          2.4940     3.6550     4.7890 ca         1 37Q      -0.058200
     10 C20         -1.0640     5.8410     2.5880 c          1 37Q       0.665300
     11 C1          -3.0450     6.5260     1.3670 c2         1 37Q      -0.124000
     12 C2          -0.6920     0.0060     1.1970 ca         1 37Q      -0.144000
     13 C3          -0.0050     0.0070     2.3970 ca         1 37Q      -0.108000
     14 C9           1.8740     4.1110     3.6360 ca         1 37Q      -0.150000
     15 C11          5.5620     1.8590     4.1620 ca         1 37Q       0.234900
     16 C12          3.6860     2.7080     6.3940 cc         1 37Q       0.431700
     17 C14          2.0740     0.0000     1.2030 ca         1 37Q       0.144600
     18 C16          2.1080     4.1630     6.0410 ca         1 37Q       0.074400
     19 C18          4.1680     0.6410     2.2220 ca         1 37Q       0.596900
     20 C19          4.1790     1.9710     4.0940 ca         1 37Q       0.450500
     21 N21          6.2150     1.1510     3.2570 nb         1 37Q      -0.595000
     22 N22          2.8750     3.5430     6.9760 nd         1 37Q      -0.582100
     23 N23          3.5100     1.3560     3.1270 nb         1 37Q      -0.731000
     24 N24          3.4720    -0.0060     1.2060 nu         1 37Q      -0.765300
     25 N25          0.2490     5.5350     2.5670 ns         1 37Q      -0.472100
     26 N26          3.4920     2.7320     5.0430 na         1 37Q      -0.192100
     27 O27         -1.6800     5.7980     3.6360 o          1 37Q      -0.599100
     28 H1          -0.5410    -0.0000    -0.9380 ha         1 37Q       0.134500
     29 H2           1.9140     0.0020     3.3440 ha         1 37Q       0.142000
     30 H3           1.9230    -0.0030    -0.9380 ha         1 37Q       0.142000
     31 H4          -0.2770     6.3270     5.0310 ha         1 37Q       0.169000
     32 H5           0.8030     5.5300     7.0740 ha         1 37Q       0.148000
     33 H6           6.0930    -0.0400     1.5510 h4         1 37Q       0.034100
     34 H7          -1.2000     6.2620     0.4130 ha         1 37Q       0.127000
     35 H9          -3.5500     6.8090     0.4510 ha         1 37Q       0.131500
     36 H10         -3.5950     6.4880     2.3000 ha         1 37Q       0.131500
     37 H12         -1.7760     0.0090     1.1940 ha         1 37Q       0.132000
     38 H13         -0.5510     0.0100     3.3330 ha         1 37Q       0.134500
     39 H14          2.1650     3.7190     2.6690 ha         1 37Q       0.143000
     40 H15          6.1070     2.3600     4.9530 h4         1 37Q       0.041100
     41 H16          4.4080     2.0850     6.9070 h5         1 37Q       0.077800
     42 H17          3.9720    -0.4960     0.4910 hn         1 37Q       0.460800
     43 H18          0.7820     5.6750     1.7310 hn         1 37Q       0.325500
@<TRIPOS>BOND
     1    21     6 ar
     2    21    15 ar
     3     6    19 ar
     4    24    19 1
     5    24    17 1
     6    15    20 ar
     7    19    23 ar
     8     2    17 ar
     9     2    13 ar
    10    17     3 ar
    11    20    23 ar
    12    20    26 1
    13    13    12 ar
    14     3     1 ar
    15    26    16 1
    16    26     9 1
    17    16    22 2
    18    12     1 ar
    19     9    14 ar
    20     9    18 ar
    21    22    18 1
    22    14     8 ar
    23    18     5 ar
    24     8    25 1
    25     8     4 ar
    26    25    10 1
    27     5     4 ar
    28    10     7 1
    29    10    27 2
    30     7    11 2
    31     1    28 1
    32     2    29 1
    33     3    30 1
    34     4    31 1
    35     5    32 1
    36     6    33 1
    37     7    34 1
    38    11    35 1
    39    11    36 1
    40    12    37 1
    41    13    38 1
    42    14    39 1
    43    15    40 1
    44    16    41 1
    45    24    42 1
    46    25    43 1
@<TRIPOS>SUBSTRUCTURE
     1 37Q         1 TEMP              0 ****  ****    0 ROOT
