@<TRIPOS>MOLECULE
37R
   42    44     1     0     0
SMALL
bcc


@<TRIPOS>ATOM
      1 O15          0.0000     0.0000     0.0000 oh         1 37R      -0.495100
      2 C2           1.3610     0.0000     0.0000 ca         1 37R       0.151100
      3 C1           2.0530     0.0000     1.2020 ca         1 37R      -0.211300
      4 C6           3.4370     0.0010     1.2040 ca         1 37R       0.331000
      5 O7           4.1140    -0.0040     2.3820 os         1 37R      -0.360800
      6 C8           5.4360     0.3040     2.4000 ca         1 37R       0.359000
      7 C17          6.0590     0.6120     3.5990 ca         1 37R      -0.246300
      8 C12          7.4110     0.9230     3.6190 ca         1 37R       0.155100
      9 O16          8.0190     1.2250     4.7970 oh         1 37R      -0.501100
     10 C3           2.0500    -0.0060    -1.2020 ca         1 37R      -0.146000
     11 C4           3.4350    -0.0050    -1.2050 ca         1 37R      -0.052000
     12 C11          4.1270     0.0030    -0.0070 ca         1 37R      -0.263600
     13 N10          5.5340     0.0100     0.0050 na         1 37R       0.131900
     14 C9           6.1760     0.3140     1.2190 ca         1 37R      -0.253600
     15 C14          7.5250     0.6230     1.2420 ca         1 37R      -0.049000
     16 C13          8.1430     0.9280     2.4420 ca         1 37R      -0.154300
     17 C15          9.6120     1.2660     2.4690 c3         1 37R       0.056900
     18 C16          9.7840     2.7840     2.5380 c3         1 37R      -0.027400
     19 C42         11.2750     3.1270     2.5660 c3         1 37R      -0.018400
     20 C43         11.4490     4.6460     2.6330 c3         1 37R      -0.090400
     21 C44         12.9170     4.9830     2.6610 c          1 37R       0.306100
     22 O46         13.7430     4.0960     2.6280 o          1 37R      -0.389100
     23 N45         13.3120     6.2700     2.7210 nz         1 37R       0.195600
     24 H2          -0.3150     0.8890    -0.0240 ho         1 37R       0.408000
     25 H1           1.5100    -0.0000     2.1400 ha         1 37R       0.131000
     26 H17          5.4900     0.6110     4.5210 ha         1 37R       0.131000
     27 HO16         7.8460     0.5430     5.4250 ho         1 37R       0.412000
     28 H3           1.5070    -0.0580    -2.1380 ha         1 37R       0.123000
     29 H4           3.9760    -0.0100    -2.1430 ha         1 37R       0.114000
     30 H5           5.8750    -0.8640    -0.3430 hn         1 37R       0.107700
     31 H14          8.0960     0.6260     0.3210 ha         1 37R       0.116000
     32 H152        10.0860     0.8880     1.5710 hc         1 37R       0.022200
     33 H151        10.0710     0.8110     3.3390 hc         1 37R       0.022200
     34 H161         9.3100     3.1610     3.4350 hc         1 37R       0.027200
     35 H162         9.3250     3.2390     1.6680 hc         1 37R       0.027200
     36 H422        11.7340     2.6720     3.4350 hc         1 37R       0.037200
     37 H421        11.7490     2.7490     1.6680 hc         1 37R       0.037200
     38 H432        10.9900     5.1010     1.7640 hc         1 37R       0.058200
     39 H431        10.9740     5.0240     3.5310 hc         1 37R       0.058200
     40 H451        14.3040     6.3210     2.6030 hn         1 37R       0.247467
     41 H452        13.0620     6.6540     3.6110 hn         1 37R       0.247467
     42 H453        12.8620     6.7920     1.9950 hn         1 37R       0.247467
@<TRIPOS>BOND
     1     1     2 1   
     2     1    24 1   
     3     2     3 ar  
     4     2    10 ar  
     5     3     4 ar  
     6     3    25 1   
     7     4     5 1   
     8     4    12 ar  
     9     5     6 1   
    10     6     7 ar  
    11     6    14 ar  
    12     7     8 ar  
    13     7    26 1   
    14     8     9 1   
    15     8    16 ar  
    16     9    27 1   
    17    10    11 ar  
    18    10    28 1   
    19    11    12 ar  
    20    11    29 1   
    21    12    13 1   
    22    13    14 1   
    23    13    30 1   
    24    14    15 ar  
    25    15    16 ar  
    26    15    31 1   
    27    16    17 1   
    28    17    18 1   
    29    17    32 1   
    30    17    33 1   
    31    18    19 1   
    32    18    34 1   
    33    18    35 1   
    34    19    20 1   
    35    19    36 1   
    36    19    37 1   
    37    20    21 1   
    38    20    38 1   
    39    20    39 1   
    40    21    22 2   
    41    21    23 1   
    42    23    40 1   
    43    23    41 1   
    44    23    42 1   
@<TRIPOS>SUBSTRUCTURE
     1 37R         1 TEMP              0 ****  ****    0 ROOT
