@<TRIPOS>MOLECULE
molecule
   21    22     1     0     0
SMALL
bcc


@<TRIPOS>ATOM
      1 O6           0.0000     0.0000     0.0000 o          1 37T      -0.612500
      2 C6           1.2270     0.0000     0.0000 c          1 37T       0.775100
      3 N1           2.0010     0.0000     1.1690 ns         1 37T      -0.603500
      4 C5           2.0540    -0.0010    -1.1630 cc         1 37T      -0.336200
      5 N7           1.7290    -0.0020    -2.4880 na         1 37T      -0.153900
      6 C13          0.4060    -0.0030    -3.0670 c3         1 37T       0.032600
      7 C8           2.9080    -0.0040    -3.1880 cc         1 37T       0.437400
      8 N9           3.9590    -0.0050    -2.3920 nd         1 37T      -0.689000
      9 C4           3.4250    -0.0030    -1.1320 cd         1 37T       0.485200
     10 N3           4.1330    -0.0030     0.0680 n          1 37T      -0.441300
     11 C12          5.5890    -0.0050     0.0610 c3         1 37T       0.108300
     12 C2           3.4140    -0.0020     1.2870 c          1 37T       0.837500
     13 O2           3.9490    -0.0030     2.3990 o          1 37T      -0.621500
     14 HN1          1.4910     0.0010     2.0300 hn         1 37T       0.344500
     15 H131        -0.1120     0.9050    -2.7850 h1         1 37T       0.064367
     16 H132        -0.1460    -0.8620    -2.7050 h1         1 37T       0.064367
     17 H133         0.4850    -0.0530    -4.1470 h1         1 37T       0.064367
     18 H8           2.9640     0.4770    -4.1580 h5         1 37T       0.070100
     19 H121         5.9460    -0.8740    -0.4790 h1         1 37T       0.057700
     20 H122         5.9490     0.8940    -0.4240 h1         1 37T       0.057700
     21 H123         5.9540    -0.0380     1.0800 h1         1 37T       0.057700
@<TRIPOS>BOND
     1     1     2 2   
     2     2     3 1   
     3     2     4 1   
     4     3    12 1   
     5     3    14 1   
     6     4     9 2   
     7     4     5 1   
     8     5     7 1   
     9     5     6 1   
    10     6    15 1   
    11     6    16 1   
    12     6    17 1   
    13     7     8 2   
    14     7    18 1   
    15     8     9 1   
    16     9    10 1   
    17    10    11 1   
    18    10    12 1   
    19    11    19 1   
    20    11    20 1   
    21    11    21 1   
    22    12    13 2   
@<TRIPOS>SUBSTRUCTURE
     1 37T         1 TEMP              0 ****  ****    0 ROOT
