@<TRIPOS>MOLECULE
37V
   37    39     1     0     0
SMALL
bcc


@<TRIPOS>ATOM
      1 N1           0.0000     0.0000     0.0000 ns         1 37V      -0.234900
      2 C3           1.4650     0.0000     0.0000 c3         1 37V       0.064700
      3 C4           1.9670     0.0000     1.4210 cc         1 37V       0.361200
      4 S5           2.2870     1.4100     2.3260 ss         1 37V      -0.184100
      5 C6           2.7760     0.4410     3.7120 ca         1 37V      -0.029100
      6 C7           3.2250     0.7970     4.9820 ca         1 37V      -0.047000
      7 C8           3.5480    -0.1800     5.8960 ca         1 37V      -0.098000
      8 C9           3.4280    -1.5190     5.5540 ca         1 37V      -0.106000
      9 C10          2.9920    -1.8870     4.3180 ca         1 37V      -0.039000
     10 C12          2.6530    -0.9080     3.3620 ca         1 37V       0.071400
     11 N13          2.2020    -1.0580     2.1010 nd         1 37V      -0.436100
     12 C19         -0.6740    -0.0060    -1.1670 c          1 37V       0.591700
     13 O20         -0.0660    -0.0050    -2.2210 o          1 37V      -0.574100
     14 C21         -2.1480    -0.0130    -1.1660 ca         1 37V      -0.229600
     15 C22         -2.8510    -0.0080     0.0410 ca         1 37V      -0.026000
     16 C24         -4.2280    -0.0140     0.0360 ca         1 37V      -0.225000
     17 C26         -4.9230    -0.0240    -1.1650 ca         1 37V       0.159900
     18 F27         -6.2730    -0.0300    -1.1600 f          1 37V      -0.138900
     19 C28         -4.2380    -0.0290    -2.3680 ca         1 37V      -0.272000
     20 C30         -2.8530    -0.0180    -2.3790 ca         1 37V       0.256100
     21 O31         -2.1810    -0.0180    -3.5580 os         1 37V      -0.201900
     22 C32         -2.9650    -0.0240    -4.7520 c3         1 37V       0.068400
     23 C33         -2.0540    -0.0230    -5.9520 c          1 37V       0.972600
     24 O34         -2.5740    -0.0280    -7.1900 o          1 37V      -0.873800
     25 O36         -0.8550    -0.0170    -5.8000 o          1 37V      -0.873800
     26 H1          -0.5000     0.0130     0.8670 hn         1 37V       0.177500
     27 H2           1.8260    -0.8840    -0.5110 h1         1 37V       0.042700
     28 H3           1.8260     0.8850    -0.5110 h1         1 37V       0.042700
     29 H4           3.3160     1.8460     5.2390 ha         1 37V       0.109000
     30 H5           3.8970     0.1010     6.8830 ha         1 37V       0.103000
     31 H6           3.6870    -2.2740     6.2870 ha         1 37V       0.103000
     32 H7           2.9090    -2.9410     4.0810 ha         1 37V       0.114000
     33 H8          -2.3120     0.0010     0.9810 ha         1 37V       0.094000
     34 H9          -4.7710    -0.0090     0.9740 ha         1 37V       0.111000
     35 H10         -4.7870    -0.0350    -3.3030 ha         1 37V       0.153000
     36 H11         -3.5940     0.8590    -4.7750 h1         1 37V      -0.002800
     37 H12         -3.5870    -0.9100    -4.7710 h1         1 37V      -0.002800
@<TRIPOS>BOND
     1     1     2 1   
     2     1    12 1   
     3     1    26 1   
     4     2     3 1   
     5     2    27 1   
     6     2    28 1   
     7     3     4 1   
     8     3    11 2   
     9     4     5 1   
    10     5     6 ar  
    11     5    10 ar  
    12     6     7 ar  
    13     6    29 1   
    14     7     8 ar  
    15     7    30 1   
    16     8     9 ar  
    17     8    31 1   
    18     9    10 ar  
    19     9    32 1   
    20    10    11 1   
    21    12    13 2   
    22    12    14 1   
    23    14    15 ar  
    24    14    20 ar  
    25    15    16 ar  
    26    15    33 1   
    27    16    17 ar  
    28    16    34 1   
    29    17    18 1   
    30    17    19 ar  
    31    19    20 ar  
    32    19    35 1   
    33    20    21 1   
    34    21    22 1   
    35    22    23 1   
    36    22    36 1   
    37    22    37 1   
    38    23    24 1   
    39    23    25 1   
@<TRIPOS>SUBSTRUCTURE
     1 37V         1 TEMP              0 ****  ****    0 ROOT
