@<TRIPOS>MOLECULE
molecule
   48    49     1     0     0
SMALL
bcc


@<TRIPOS>ATOM
      1 C10          0.0000     0.0000     0.0000 cc         1 37W       0.126500
      2 C02         -0.1980     0.0100     6.4670 ca         1 37W      -0.061300
      3 C03         -0.5690    -1.0800     5.7010 ca         1 37W      -0.132000
      4 C04         -0.3260    -1.0880     4.3420 ca         1 37W      -0.123000
      5 C05          0.2940     0.0070     3.7430 ca         1 37W      -0.068000
      6 C06          0.5570     0.0060     2.2840 cd         1 37W      -0.020000
      7 C07          1.7850     0.0000     1.7530 cc         1 37W      -0.087400
      8 C08          3.0640     0.0010     2.5500 c3         1 37W      -0.011800
      9 S09          1.7030     0.0000     0.0000 ss         1 37W       0.177200
     10 N11         -0.7850    -0.0060    -1.1420 ns         1 37W      -0.457100
     11 C12         -0.2050    -0.0060    -2.3590 c          1 37W       0.644100
     12 O13          1.0040    -0.0000    -2.4540 o          1 37W      -0.536100
     13 C14         -1.0580    -0.0120    -3.6010 c3         1 37W      -0.154400
     14 C15         -0.1580    -0.0090    -4.8390 c3         1 37W      -0.052400
     15 C16         -1.0250    -0.0160    -6.1000 c3         1 37W      -0.187400
     16 C17         -0.1380    -0.0130    -7.3180 c          1 37W       0.890600
     17 O18         -0.6830    -0.0180    -8.5450 o          1 37W      -0.838800
     18 O19          1.0640    -0.0070    -7.1910 o          1 37W      -0.838800
     19 C20         -0.4910    -0.0000     1.2770 cd         1 37W      -0.369600
     20 C21         -1.9210    -0.0060     1.5960 c          1 37W       0.553700
     21 N22         -2.5830     1.1580     1.7410 nz         1 37W      -0.682400
     22 O23         -2.5100    -1.0630     1.7310 o          1 37W      -0.410100
     23 C24          0.6660     1.1040     4.5190 ca         1 37W      -0.128000
     24 C25          0.4120     1.1010     5.8760 ca         1 37W      -0.076300
     25 C26         -0.4660     0.0110     7.9500 c3         1 37W      -0.069800
     26 H1           1.8460     2.2610     6.4060 hc         1 37W       0.053700
     27 H2           0.2640     2.9930     6.1000 hc         1 37W       0.053700
     28 H3           0.7500     2.5970     7.7540 hc         1 37W       0.053700
     29 H4          -1.0510    -1.9300     6.1680 ha         1 37W       0.143000
     30 H5          -0.6180    -1.9420     3.7430 ha         1 37W       0.148000
     31 H6           3.9000    -0.2040     1.8930 hc         1 37W       0.057367
     32 H7           3.1990     0.9700     3.0140 hc         1 37W       0.057367
     33 H8           3.0120    -0.7620     3.3170 hc         1 37W       0.057367
     34 H9          -1.7820    -0.0420    -1.0640 hn         1 37W       0.314500
     35 H10         -1.6880     0.8700    -3.6110 hc         1 37W       0.060200
     36 H11         -1.6790    -0.8990    -3.6090 hc         1 37W       0.060200
     37 H12          0.4630     0.8780    -4.8320 hc         1 37W       0.068700
     38 H13          0.4720    -0.8900    -4.8290 hc         1 37W       0.068700
     39 H14         -1.6450    -0.9040    -6.1070 hc         1 37W       0.028200
     40 H15         -1.6550     0.8650    -6.1100 hc         1 37W       0.028200
     41 H17         -2.9320     1.2300     2.6760 hn         1 37W       0.472800
     42 H18         -3.3490     1.1890     1.0970 hn         1 37W       0.472800
     43 H19          1.1460     1.9580     4.0580 ha         1 37W       0.137000
     44 H20          0.0580    -0.9220     8.1170 hc         1 37W       0.056367
     45 H21         -1.5250    -0.1850     7.8340 hc         1 37W       0.056367
     46 H22         -0.3110     0.6690     8.7970 hc         1 37W       0.056367
     47 H223        -1.9630     1.9210     1.5540 hn         1 37W       0.472800
     48 C01          0.8080     2.2880     6.7170 c3         1 37W      -0.063800
@<TRIPOS>BOND
     1     8     7 1   
     2     7     9 1   
     3     7     6 2   
     4     9     1 1   
     5     4     3 ar  
     6     4     5 ar  
     7     3     2 ar  
     8    12    11 2   
     9     6     5 1   
    10     6    19 1   
    11     5    23 ar  
    12     2    48 1   
    13     2    24 ar  
    14    23    24 ar  
    15     1    19 2   
    16     1    10 1   
    17    24    25 1   
    18    19    20 1   
    19    11    10 1   
    20    11    13 1   
    21    14    13 1   
    22    14    15 1   
    23    17    16 1   
    24    20    21 1   
    25    20    22 2   
    26    15    16 1   
    27    16    18 1   
    28    48    26 1   
    29    48    27 1   
    30    48    28 1   
    31     3    29 1   
    32     4    30 1   
    33     8    31 1   
    34     8    32 1   
    35     8    33 1   
    36    10    34 1   
    37    13    35 1   
    38    13    36 1   
    39    14    37 1   
    40    14    38 1   
    41    15    39 1   
    42    15    40 1   
    43    21    41 1   
    44    21    42 1   
    45    23    43 1   
    46    25    44 1   
    47    25    45 1   
    48    25    46 1   
    49    47    21 1   
@<TRIPOS>SUBSTRUCTURE
     1 37W         1 TEMP              0 ****  ****    0 ROOT
