@<TRIPOS>MOLECULE
37W
   48    49     1     0     0
SMALL
bcc


@<TRIPOS>ATOM
      1 C10          0.0000     0.0000     0.0000 cc         1 37W       0.081500
      2 C02         -0.1980     0.0100     6.4670 ca         1 37W      -0.063300
      3 C03         -0.5690    -1.0800     5.7010 ca         1 37W      -0.102000
      4 C04         -0.3260    -1.0880     4.3420 ca         1 37W      -0.102000
      5 C05          0.2940     0.0070     3.7430 ca         1 37W      -0.072000
      6 C06          0.5570     0.0060     2.2840 cd         1 37W      -0.008000
      7 C07          1.7850     0.0000     1.7530 cc         1 37W      -0.006400
      8 C08          3.0640     0.0010     2.5500 c3         1 37W       0.103200
      9 S09          1.7030     0.0000     0.0000 ss         1 37W      -0.035800
     10 N11         -0.7850    -0.0060    -1.1420 ns         1 37W      -0.011100
     11 C12         -0.2050    -0.0060    -2.3590 c          1 37W       0.537100
     12 O13          1.0040    -0.0000    -2.4540 o          1 37W      -0.529100
     13 C14         -1.0580    -0.0120    -3.6010 c3         1 37W      -0.093400
     14 C15         -0.1580    -0.0090    -4.8390 c3         1 37W      -0.005400
     15 C16         -1.0250    -0.0160    -6.1000 c3         1 37W      -0.136400
     16 C17         -0.1380    -0.0130    -7.3180 c          1 37W       0.977600
     17 O18         -0.6830    -0.0180    -8.5450 o          1 37W      -0.888800
     18 O19          1.0640    -0.0070    -7.1910 o          1 37W      -0.888800
     19 C20         -0.4910    -0.0000     1.2770 cd         1 37W      -0.401600
     20 C21         -1.9210    -0.0060     1.5960 c          1 37W       0.411700
     21 N22         -2.5830     1.1580     1.7410 nz         1 37W       0.186600
     22 O23         -2.5100    -1.0630     1.7310 o          1 37W      -0.415100
     23 C24          0.6660     1.1040     4.5190 ca         1 37W      -0.106000
     24 C25          0.4120     1.1010     5.8760 ca         1 37W      -0.077300
     25 C26         -0.4660     0.0110     7.9500 c3         1 37W       0.034200
     26 H1           1.8460     2.2610     6.4060 hc         1 37W       0.019700
     27 H2           0.2640     2.9930     6.1000 hc         1 37W       0.019700
     28 H3           0.7500     2.5970     7.7540 hc         1 37W       0.019700
     29 H4          -1.0510    -1.9300     6.1680 ha         1 37W       0.117000
     30 H5          -0.6180    -1.9420     3.7430 ha         1 37W       0.121000
     31 H6           3.9000    -0.2040     1.8930 hc         1 37W       0.020700
     32 H7           3.1990     0.9700     3.0140 hc         1 37W       0.020700
     33 H8           3.0120    -0.7620     3.3170 hc         1 37W       0.020700
     34 H9          -1.7820    -0.0420    -1.0640 hn         1 37W       0.153500
     35 H10         -1.6880     0.8700    -3.6110 hc         1 37W       0.026200
     36 H11         -1.6790    -0.8990    -3.6090 hc         1 37W       0.026200
     37 H12          0.4630     0.8780    -4.8320 hc         1 37W       0.040700
     38 H13          0.4720    -0.8900    -4.8290 hc         1 37W       0.040700
     39 H14         -1.6450    -0.9040    -6.1070 hc         1 37W       0.003200
     40 H15         -1.6550     0.8650    -6.1100 hc         1 37W       0.003200
     41 H17         -2.9320     1.2300     2.6760 hn         1 37W       0.245467
     42 H18         -3.3490     1.1890     1.0970 hn         1 37W       0.245467
     43 H19          1.1460     1.9580     4.0580 ha         1 37W       0.116000
     44 H20          0.0580    -0.9220     8.1170 hc         1 37W       0.022367
     45 H21         -1.5250    -0.1850     7.8340 hc         1 37W       0.022367
     46 H22         -0.3110     0.6690     8.7970 hc         1 37W       0.022367
     47 H223        -1.9630     1.9210     1.5540 hn         1 37W       0.245467
     48 C01          0.8080     2.2880     6.7170 c3         1 37W       0.042200
@<TRIPOS>BOND
     1     1     9 1   
     2     1    10 1   
     3     1    19 2   
     4     2     3 ar  
     5     2    24 ar  
     6     2    25 1   
     7     3     4 ar  
     8     3    29 1   
     9     4     5 ar  
    10     4    30 1   
    11     5     6 1   
    12     5    23 ar  
    13     6     7 2   
    14     6    19 1   
    15     7     8 1   
    16     7     9 1   
    17     8    31 1   
    18     8    32 1   
    19     8    33 1   
    20    10    11 1   
    21    10    34 1   
    22    11    12 2   
    23    11    13 1   
    24    13    14 1   
    25    13    35 1   
    26    13    36 1   
    27    14    15 1   
    28    14    37 1   
    29    14    38 1   
    30    15    16 1   
    31    15    39 1   
    32    15    40 1   
    33    16    17 1   
    34    16    18 1   
    35    19    20 1   
    36    20    21 1   
    37    20    22 2   
    38    21    41 1   
    39    21    42 1   
    40    21    47 1   
    41    23    24 ar  
    42    23    43 1   
    43    24    48 1   
    44    25    44 1   
    45    25    45 1   
    46    25    46 1   
    47    26    48 1   
    48    27    48 1   
    49    28    48 1   
@<TRIPOS>SUBSTRUCTURE
     1 37W         1 TEMP              0 ****  ****    0 ROOT
