@<TRIPOS>MOLECULE
molecule
   34    33     1     0     0
SMALL
bcc


@<TRIPOS>ATOM
      1 N01          0.0000     0.0000     0.0000 nz         1 37Z      -0.810600
      2 C02          1.4690     0.0000     0.0000 c3         1 37Z       0.094300
      3 C03          1.9790     0.0000     1.4430 c3         1 37Z      -0.112400
      4 C04          3.5090     0.0010     1.4430 c3         1 37Z      -0.077400
      5 C05          4.0190     0.0000     2.8850 c3         1 37Z       0.162800
      6 N06          5.4880     0.0000     2.8850 n7         1 37Z      -0.814200
      7 C07          6.0150     0.0010     4.2560 c3         1 37Z       0.162800
      8 C08          7.5440     0.0010     4.2160 c3         1 37Z      -0.077400
      9 C09          8.0930     0.0000     5.6440 c3         1 37Z      -0.112400
     10 C10          9.6220     0.0000     5.6020 c3         1 37Z       0.094300
     11 N11         10.1490     0.0000     6.9740 nz         1 37Z      -0.810600
     12 H011        -0.3340    -0.8170     0.4720 hn         1 37Z       0.460633
     13 HN01        -0.3340     0.8170     0.4720 hn         1 37Z       0.460633
     14 H021         1.8310     0.8850    -0.5110 hx         1 37Z       0.115700
     15 H022         1.8310    -0.8850    -0.5110 hx         1 37Z       0.115700
     16 H031         1.6180    -0.8850     1.9530 hc         1 37Z       0.067200
     17 H032         1.6170     0.8840     1.9530 hc         1 37Z       0.067200
     18 H042         3.8700     0.8850     0.9320 hc         1 37Z       0.067700
     19 H041         3.8700    -0.8840     0.9320 hc         1 37Z       0.067700
     20 H1           3.6580    -0.8840     3.3950 h1         1 37Z       0.043200
     21 H2           3.6580     0.8850     3.3950 h1         1 37Z       0.043200
     22 H3           5.8220    -0.8090     2.3990 hn         1 37Z       0.361800
     23 H071         5.6680    -0.8840     4.7760 h1         1 37Z       0.043200
     24 H072         5.6680     0.8850     4.7760 h1         1 37Z       0.043200
     25 H081         7.8910    -0.8840     3.6950 hc         1 37Z       0.067700
     26 H082         7.8910     0.8850     3.6960 hc         1 37Z       0.067700
     27 H091         7.7450     0.8850     6.1640 hc         1 37Z       0.067200
     28 H092         7.7450    -0.8840     6.1640 hc         1 37Z       0.067200
     29 H101         9.9690     0.8850     5.0820 hx         1 37Z       0.115700
     30 H102         9.9690    -0.8840     5.0820 hx         1 37Z       0.115700
     31 HN11        11.1490     0.0000     6.9470 hn         1 37Z       0.460633
     32 H112         9.8280    -0.8170     7.4550 hn         1 37Z       0.460633
     33 H013        -0.3340     0.0100    -0.9440 hn         1 37Z       0.460633
     34 H113         9.8290     0.8180     7.4540 hn         1 37Z       0.460633
@<TRIPOS>BOND
     1     2     1 1   
     2     2     3 1   
     3     3     4 1   
     4     4     5 1   
     5     5     6 1   
     6     6     7 1   
     7     7     8 1   
     8     9     8 1   
     9     9    10 1   
    10    10    11 1   
    11     1    12 1   
    12     1    13 1   
    13     2    14 1   
    14     2    15 1   
    15     3    16 1   
    16     3    17 1   
    17     4    18 1   
    18     4    19 1   
    19     5    20 1   
    20     5    21 1   
    21     6    22 1   
    22     7    23 1   
    23     7    24 1   
    24     8    25 1   
    25     8    26 1   
    26     9    27 1   
    27     9    28 1   
    28    10    29 1   
    29    10    30 1   
    30    11    31 1   
    31    11    32 1   
    32    33     1 1   
    33    34    11 1   
@<TRIPOS>SUBSTRUCTURE
     1 37Z         1 TEMP              0 ****  ****    0 ROOT
