@<TRIPOS>MOLECULE
molecule
   58    60     1     0     0
SMALL
bcc


@<TRIPOS>ATOM
      1 C1           0.0000     0.0000     0.0000 ce         1 380       0.533800
      2 N1           1.3790     0.0000     0.0000 nz         1 380      -0.740600
      3 N2          -0.6510     0.0000     1.1300 n2         1 380      -0.751100
      4 C2          -0.7400     0.0010    -1.2800 ca         1 380      -0.319900
      5 C3          -2.1350     0.0010    -1.2810 ca         1 380      -0.045000
      6 C4          -2.8220     0.0030    -2.4750 ca         1 380      -0.194000
      7 C5          -2.1260     0.0040    -3.6790 ca         1 380       0.265600
      8 N3          -2.8220     0.0050    -4.8840 nu         1 380      -0.761600
      9 C11         -2.0910     0.0070    -6.1530 c3         1 380       0.207800
     10 C22         -2.9550    -0.5920    -7.2330 c          1 380       0.655100
     11 N24         -2.4870    -0.6950    -8.4920 ns         1 380      -0.562900
     12 C25         -3.3270    -1.2780    -9.5410 c3         1 380       0.162300
     13 C26         -2.5740    -1.2770   -10.8470 ca         1 380      -0.131300
     14 C27         -1.7910    -2.3610   -11.1940 ca         1 380      -0.111000
     15 C28         -1.1010    -2.3600   -12.3910 ca         1 380      -0.128000
     16 C29         -1.1940    -1.2750   -13.2410 ca         1 380      -0.112000
     17 C30         -1.9780    -0.1900   -12.8950 ca         1 380      -0.128000
     18 C31         -2.6720    -0.1930   -11.6990 ca         1 380      -0.111000
     19 O23         -4.0730    -0.9830    -6.9670 o          1 380      -0.606100
     20 C12         -1.7330     1.4230    -6.5250 ca         1 380      -0.138300
     21 C17         -0.4940     1.6990    -7.0750 ca         1 380      -0.198000
     22 C19         -0.1660     2.9990    -7.4220 ca         1 380       0.102100
     23 O2           1.0520     3.2730    -7.9630 os         1 380      -0.268900
     24 C24          1.7560     2.0310    -8.0470 c3         1 380       0.104700
     25 C20         -1.0790     4.0260    -7.2060 ca         1 380       0.143100
     26 O3          -0.7580     5.3050    -7.5400 os         1 380      -0.274900
     27 C32         -1.8890     6.1140    -7.2070 c3         1 380       0.105700
     28 C16         -2.6430     2.4420    -6.3150 ca         1 380      -0.117000
     29 C18         -2.3190     3.7420    -6.6540 ca         1 380      -0.200000
     30 C6          -0.7350    -0.0020    -3.6810 ca         1 380      -0.194000
     31 C7          -0.0430     0.0030    -2.4900 ca         1 380      -0.045000
     32 H1N1         1.7130     0.8170    -0.4720 hn         1 380       0.470467
     33 H1N2         1.7130     0.0000     0.9440 hn         1 380       0.470467
     34 HN2         -1.6520     0.0000     1.1320 hn         1 380       0.479400
     35 H3          -2.6780    -0.0000    -0.3430 ha         1 380       0.120000
     36 H4          -3.9060     0.0030    -2.4760 ha         1 380       0.159500
     37 HA          -3.8230    -0.0300    -4.8830 hn         1 380       0.478800
     38 H11         -1.1860    -0.5790    -6.0490 h1         1 380       0.074700
     39 H24         -1.5500    -0.4120    -8.7010 hn         1 380       0.321500
     40 H251        -4.2320    -0.6920    -9.6460 h1         1 380       0.065200
     41 H252        -3.5840    -2.2960    -9.2740 h1         1 380       0.065200
     42 H27         -1.7180    -3.2120   -10.5270 ha         1 380       0.134000
     43 H28         -0.4860    -3.2090   -12.6630 ha         1 380       0.138000
     44 H29         -0.6510    -1.2730   -14.1790 ha         1 380       0.138000
     45 H30         -2.0530     0.6590   -13.5630 ha         1 380       0.138000
     46 H31         -3.2870     0.6560   -11.4270 ha         1 380       0.134000
     47 H17          0.2300     0.9040    -7.2070 ha         1 380       0.141000
     48 H241         2.7410     2.2030    -8.4630 h1         1 380       0.043367
     49 H242         1.2080     1.3480    -8.6840 h1         1 380       0.043367
     50 H243         1.8520     1.6030    -7.0560 h1         1 380       0.043367
     51 H321        -2.7520     5.7760    -7.7670 h1         1 380       0.048367
     52 H322        -2.0910     6.0330    -6.1460 h1         1 380       0.048367
     53 H323        -1.6790     7.1480    -7.4560 h1         1 380       0.048367
     54 H16         -3.6160     2.2190    -5.8950 ha         1 380       0.138000
     55 H18         -3.2440     4.2210    -6.3570 ha         1 380       0.167000
     56 H6          -0.1950    -0.0010    -4.6200 ha         1 380       0.159500
     57 H7           1.0400    -0.0020    -2.4930 ha         1 380       0.120000
     58 H13          1.7130    -0.8170    -0.4710 hn         1 380       0.470467
@<TRIPOS>BOND
     1     1     2 1   
     2     1     3 2   
     3     1     4 1   
     4     2    32 1   
     5     2    33 1   
     6     3    34 1   
     7     4     5 ar  
     8     4    31 ar  
     9     5     6 ar  
    10     5    35 1   
    11     6     7 ar  
    12     6    36 1   
    13     7     8 1   
    14     7    30 ar  
    15     8     9 1   
    16     8    37 1   
    17     9    10 1   
    18     9    20 1   
    19     9    38 1   
    20    10    11 1   
    21    10    19 2   
    22    11    12 1   
    23    11    39 1   
    24    12    13 1   
    25    12    40 1   
    26    12    41 1   
    27    13    14 ar  
    28    13    18 ar  
    29    14    15 ar  
    30    14    42 1   
    31    15    16 ar  
    32    15    43 1   
    33    16    17 ar  
    34    16    44 1   
    35    17    18 ar  
    36    17    45 1   
    37    18    46 1   
    38    20    21 ar  
    39    20    28 ar  
    40    21    22 ar  
    41    21    47 1   
    42    22    23 1   
    43    22    25 ar  
    44    23    24 1   
    45    24    48 1   
    46    24    49 1   
    47    24    50 1   
    48    25    26 1   
    49    25    29 ar  
    50    26    27 1   
    51    27    51 1   
    52    27    52 1   
    53    27    53 1   
    54    28    29 ar  
    55    28    54 1   
    56    29    55 1   
    57    30    31 ar  
    58    30    56 1   
    59    31    57 1   
    60    58     2 1   
@<TRIPOS>SUBSTRUCTURE
     1 380         1 TEMP              0 ****  ****    0 ROOT
