@<TRIPOS>MOLECULE
molecule
   36    36     1     0     0
SMALL
bcc


@<TRIPOS>ATOM
      1 O1           0.0000     0.0000     0.0000 o          1 381      -0.793500
      2 P            1.6100     0.0000     0.0000 p5         1 381       0.980400
      3 C3           2.2170     0.0000     1.7200 c3         1 381      -0.255600
      4 C2           1.8110     1.3070     2.4040 c3         1 381      -0.066400
      5 C1           2.3200     1.3050     3.8460 c3         1 381       0.082800
      6 N            1.9310     2.5610     4.5040 nz         1 381      -0.812600
      7 O2           2.1030     1.2090    -0.6960 o          1 381      -0.793500
      8 C4           2.2190    -1.4880    -0.8600 c3         1 381      -0.264600
      9 C5           1.8140    -1.4260    -2.3340 c3         1 381      -0.028700
     10 C10          2.6220    -2.4540    -3.1280 c3         1 381      -0.083400
     11 C9           2.2170    -2.3930    -4.6020 c3         1 381      -0.077400
     12 C8           0.7250    -2.7030    -4.7350 c3         1 381      -0.080400
     13 C7          -0.0820    -1.6740    -3.9410 c3         1 381      -0.077400
     14 C6           0.3220    -1.7360    -2.4670 c3         1 381      -0.083400
     15 H2           3.2970    -0.0880     1.7210 hc         1 381       0.052700
     16 H3           1.7860    -0.8370     2.2550 hc         1 381       0.052700
     17 H4           2.2430     2.1440     1.8690 hc         1 381       0.080200
     18 H5           0.7320     1.3950     2.4020 hc         1 381       0.080200
     19 H6           3.4000     1.2170     3.8480 hx         1 381       0.099200
     20 H7           1.8880     0.4680     4.3810 hx         1 381       0.099200
     21 H8           0.9330     2.6430     4.5020 hn         1 381       0.447133
     22 H9           2.3300     3.3340     4.0100 hn         1 381       0.447133
     23 H11          3.2980    -1.5320    -0.7840 hc         1 381       0.042200
     24 H12          1.7880    -2.3700    -0.4040 hc         1 381       0.042200
     25 H13          2.0100    -0.4350    -2.7260 hc         1 381       0.072700
     26 H14          2.4220    -3.4460    -2.7410 hc         1 381       0.048450
     27 H15          3.6780    -2.2310    -3.0350 hc         1 381       0.048450
     28 H16          2.4140    -1.4000    -4.9880 hc         1 381       0.034700
     29 H17          2.7880    -3.1230    -5.1620 hc         1 381       0.034700
     30 H18          0.4400    -2.6550    -5.7790 hc         1 381       0.029200
     31 H19          0.5280    -3.6940    -4.3460 hc         1 381       0.029200
     32 H20          0.1180    -0.6830    -4.3280 hc         1 381       0.034700
     33 H21         -1.1380    -1.8970    -4.0340 hc         1 381       0.034700
     34 H22         -0.2490    -1.0040    -1.9070 hc         1 381       0.048450
     35 H23          0.1240    -2.7280    -2.0810 hc         1 381       0.048450
     36 HN3          2.2770     2.5670     5.4430 hn         1 381       0.447133
@<TRIPOS>BOND
     1     6     5 1
     2     5     4 1
     3     4     3 1
     4     7     2 1
     5     3     2 1
     6     2     1 1
     7     2     8 1
     8     8     9 1
     9     9    10 1
    10     9    14 1
    11    10    11 1
    12    14    13 1
    13    13    12 1
    14    11    12 1
    15     3    15 1
    16     3    16 1
    17     4    17 1
    18     4    18 1
    19     5    19 1
    20     5    20 1
    21     6    21 1
    22     6    22 1
    23     8    23 1
    24     8    24 1
    25     9    25 1
    26    10    26 1
    27    10    27 1
    28    11    28 1
    29    11    29 1
    30    12    30 1
    31    12    31 1
    32    13    32 1
    33    13    33 1
    34    14    34 1
    35    14    35 1
    36    36     6 1
@<TRIPOS>SUBSTRUCTURE
     1 381         1 TEMP              0 ****  ****    0 ROOT
