@<TRIPOS>MOLECULE
381
   36    36     1     0     0
SMALL
bcc


@<TRIPOS>ATOM
      1 O1           0.0000     0.0000     0.0000 o          1 381      -0.625500
      2 P            1.6100     0.0000     0.0000 p5         1 381       0.368400
      3 C3           2.2170     0.0000     1.7200 c3         1 381      -0.054600
      4 C2           1.8110     1.3070     2.4040 c3         1 381       0.014600
      5 C1           2.3200     1.3050     3.8460 c3         1 381      -0.074200
      6 N            1.9310     2.5610     4.5040 nz         1 381       0.075400
      7 O2           2.1030     1.2090    -0.6960 o          1 381      -0.625500
      8 C4           2.2190    -1.4880    -0.8600 c3         1 381      -0.032600
      9 C5           1.8140    -1.4260    -2.3340 c3         1 381      -0.001700
     10 C10          2.6220    -2.4540    -3.1280 c3         1 381      -0.047900
     11 C9           2.2170    -2.3930    -4.6020 c3         1 381      -0.020900
     12 C8           0.7250    -2.7030    -4.7350 c3         1 381      -0.026400
     13 C7          -0.0820    -1.6740    -3.9410 c3         1 381      -0.020900
     14 C6           0.3220    -1.7360    -2.4670 c3         1 381      -0.047900
     15 H2           3.2970    -0.0880     1.7210 hc         1 381       0.020700
     16 H3           1.7860    -0.8370     2.2550 hc         1 381       0.020700
     17 H4           2.2430     2.1440     1.8690 hc         1 381       0.044200
     18 H5           0.7320     1.3950     2.4020 hc         1 381       0.044200
     19 H6           3.4000     1.2170     3.8480 hx         1 381       0.072200
     20 H7           1.8880     0.4680     4.3810 hx         1 381       0.072200
     21 H8           0.9330     2.6430     4.5020 hn         1 381       0.213467
     22 H9           2.3300     3.3340     4.0100 hn         1 381       0.213467
     23 H11          3.2980    -1.5320    -0.7840 hc         1 381       0.014200
     24 H12          1.7880    -2.3700    -0.4040 hc         1 381       0.014200
     25 H13          2.0100    -0.4350    -2.7260 hc         1 381       0.050700
     26 H14          2.4220    -3.4460    -2.7410 hc         1 381       0.024950
     27 H15          3.6780    -2.2310    -3.0350 hc         1 381       0.024950
     28 H16          2.4140    -1.4000    -4.9880 hc         1 381       0.005700
     29 H17          2.7880    -3.1230    -5.1620 hc         1 381       0.005700
     30 H18          0.4400    -2.6550    -5.7790 hc         1 381       0.002200
     31 H19          0.5280    -3.6940    -4.3460 hc         1 381       0.002200
     32 H20          0.1180    -0.6830    -4.3280 hc         1 381       0.005700
     33 H21         -1.1380    -1.8970    -4.0340 hc         1 381       0.005700
     34 H22         -0.2490    -1.0040    -1.9070 hc         1 381       0.024950
     35 H23          0.1240    -2.7280    -2.0810 hc         1 381       0.024950
     36 HN3          2.2770     2.5670     5.4430 hn         1 381       0.213467
@<TRIPOS>BOND
     1     1     2 1   
     2     2     3 1   
     3     2     7 1   
     4     2     8 1   
     5     3     4 1   
     6     3    15 1   
     7     3    16 1   
     8     4     5 1   
     9     4    17 1   
    10     4    18 1   
    11     5     6 1   
    12     5    19 1   
    13     5    20 1   
    14     6    21 1   
    15     6    22 1   
    16     6    36 1   
    17     8     9 1   
    18     8    23 1   
    19     8    24 1   
    20     9    10 1   
    21     9    14 1   
    22     9    25 1   
    23    10    11 1   
    24    10    26 1   
    25    10    27 1   
    26    11    12 1   
    27    11    28 1   
    28    11    29 1   
    29    12    13 1   
    30    12    30 1   
    31    12    31 1   
    32    13    14 1   
    33    13    32 1   
    34    13    33 1   
    35    14    34 1   
    36    14    35 1   
@<TRIPOS>SUBSTRUCTURE
     1 381         1 TEMP              0 ****  ****    0 ROOT
