@<TRIPOS>MOLECULE
382
   55    59     1     0     0
SMALL
bcc


@<TRIPOS>ATOM
      1 C1          0.0950   -1.1510    0.4930 c3        1 382     -0.117400
      2 C2          1.1230   -0.0840    0.8720 c3        1 382      0.154800
      3 N3          1.8830   -0.3570    2.0780 n3        1 382     -0.797200
      4 C4          2.4740   -1.6900    2.0650 c3        1 382      0.130500
      5 C5          1.4870   -2.8190    1.7370 c3        1 382     -0.115400
      6 C6          0.7390   -2.5210    0.4560 c3        1 382     -0.075400
      7 C15         3.1850   -1.9990    3.4380 c3        1 382      0.389600
      8 F17         3.5740   -3.3220    3.5020 f         1 382     -0.240800
      9 F18         2.3110   -1.9130    4.5050 f         1 382     -0.240800
     10 C19         4.4010   -1.0240    3.6020 c3        1 382      0.183800
     11 N20         5.1450   -1.2710    4.8060 nh        1 382     -0.853900
     12 C23         6.2080   -0.4630    5.1700 ca        1 382      0.734200
     13 C24         6.7990   -0.6170    6.4650 ca        1 382     -0.135900
     14 C25         7.9470    0.1790    6.7910 ca        1 382      0.113100
     15 C26         8.4920    1.0910    5.9000 ca        1 382     -0.293300
     16 C27         7.8220    1.1630    4.6640 ca        1 382      0.461200
     17 N28         6.7440    0.4520    4.2930 nb        1 382     -0.748000
     18 N31         6.4830   -1.4360    7.5690 nc        1 382     -0.538100
     19 C32         7.3870   -1.1440    8.4930 cd        1 382      0.530600
     20 O33         8.3340   -0.1470    8.0840 os        1 382     -0.308700
     21 C34         7.6040   -1.6360    9.8760 c3        1 382     -0.042400
     22 C36         6.7380   -2.7960   10.2250 ca        1 382     -0.059300
     23 C39         5.8430   -2.6590   11.2940 ca        1 382     -0.112000
     24 C40         5.0080   -3.7040   11.6760 ca        1 382     -0.127000
     25 C41         5.0520   -4.9140   10.9860 ca        1 382     -0.112000
     26 C42         5.9350   -5.0830    9.9260 ca        1 382     -0.139000
     27 C43         6.7870   -4.0280    9.5340 ca        1 382      0.041800
     28 N48         7.6630   -4.2430    8.4340 na        1 382      0.006500
     29 N49         8.9760   -3.9330    8.4040 nc        1 382     -0.520800
     30 C50         9.4120   -4.4050    7.2050 cd        1 382      0.508900
     31 N51         8.3960   -5.0270    6.4520 nd        1 382     -0.682000
     32 C52         7.3080   -4.9190    7.2380 cc        1 382      0.428400
     33 H11        -0.7470   -1.1480    1.2330 hc        1 382      0.047700
     34 H12        -0.3350   -0.9030   -0.5110 hc        1 382      0.047700
     35 H21         0.6040    0.9050    1.0110 h1        1 382      0.056700
     36 H22         1.8600    0.0260    0.0270 h1        1 382      0.056700
     37 HN3         1.2910   -0.2660    2.8860 hn        1 382      0.360800
     38 H4          3.2870   -1.6860    1.2810 h1        1 382      0.083700
     39 H51         0.7680   -2.9410    2.5880 hc        1 382      0.060700
     40 H52A        2.0540   -3.7800    1.6340 hc        1 382      0.060700
     41 H61         1.4500   -2.5740   -0.4110 hc        1 382      0.045700
     42 H62        -0.0470   -3.3040    0.2930 hc        1 382      0.045700
     43 H191        5.0790   -1.1740    2.7150 h1        1 382      0.084200
     44 H192        4.0020    0.0300    3.5780 h1        1 382      0.084200
     45 H20         4.6780   -1.7560    5.5400 hn        1 382      0.453800
     46 H26         9.3680    1.7040    6.1310 ha        1 382      0.162000
     47 H27         8.1840    1.8670    3.8890 h4        1 382      0.025100
     48 H341        8.6910   -1.9030    9.9990 hc        1 382      0.092200
     49 H342        7.4000   -0.7730   10.5730 hc        1 382      0.092200
     50 H39         5.7990   -1.7020   11.8390 ha        1 382      0.140000
     51 H40         4.3120   -3.5720   12.5180 ha        1 382      0.140000
     52 H41         4.3910   -5.7430   11.2810 ha        1 382      0.141000
     53 H42         5.9670   -6.0480    9.3950 ha        1 382      0.145000
     54 H50        10.4430   -4.3140    6.8480 h5        1 382      0.073100
     55 H52         6.2900   -5.2550    7.0190 h5        1 382      0.077100
@<TRIPOS>BOND
     1    1    2 1
     2    1    6 1
     3    1   33 1
     4    1   34 1
     5    2    3 1
     6    2   35 1
     7    2   36 1
     8    3    4 1
     9    3   37 1
    10    4    5 1
    11    4    7 1
    12    4   38 1
    13    5    6 1
    14    5   39 1
    15    5   40 1
    16    6   41 1
    17    6   42 1
    18    7    8 1
    19    7    9 1
    20    7   10 1
    21   10   11 1
    22   10   43 1
    23   10   44 1
    24   11   12 1
    25   11   45 1
    26   12   13 ar
    27   12   17 ar
    28   13   14 ar
    29   13   18 1
    30   14   15 ar
    31   14   20 1
    32   15   16 ar
    33   15   46 1
    34   16   17 ar
    35   16   47 1
    36   18   19 2
    37   19   20 1
    38   19   21 1
    39   21   22 1
    40   21   48 1
    41   21   49 1
    42   22   23 ar
    43   22   27 ar
    44   23   24 ar
    45   23   50 1
    46   24   25 ar
    47   24   51 1
    48   25   26 ar
    49   25   52 1
    50   26   27 ar
    51   26   53 1
    52   27   28 1
    53   28   29 1
    54   28   32 1
    55   29   30 2
    56   30   31 1
    57   30   54 1
    58   31   32 2
    59   32   55 1
@<TRIPOS>SUBSTRUCTURE
     1 382         1 TEMP              0 ****  ****    0 ROOT
