@<TRIPOS>MOLECULE
molecule
   52    54     1     0     0
SMALL
bcc


@<TRIPOS>ATOM
      1 C8           0.0000     0.0000     0.0000 ca         1 383      -0.121000
      2 C7           1.3800     0.0000     0.0000 ca         1 383      -0.144000
      3 C12          2.0730     0.0000     1.2020 ca         1 383       0.123100
      4 C11          1.3750     0.0020     2.4010 ca         1 383      -0.144000
      5 C10         -0.0060     0.0080     2.3950 ca         1 383      -0.121000
      6 C9          -0.6930     0.0000     1.1960 ca         1 383      -0.149300
      7 C14         -2.2010     0.0010     1.1930 c3         1 383      -0.045100
      8 C15         -2.7100    -1.4400     1.1940 c3         1 383       0.022500
      9 C17         -4.2170    -1.4400     1.1900 c          1 383       0.616100
     10 N19         -4.8930    -1.4380     2.3560 ns         1 383      -0.468900
     11 C20         -6.3580    -1.4380     2.3530 c3         1 383       0.013700
     12 C21         -6.8600    -0.0170     2.3500 c          1 383       0.898600
     13 O23         -6.0500     0.9820     2.7350 o          1 383      -0.816800
     14 O18         -4.8220    -1.4400     0.1390 o          1 383      -0.620100
     15 N16         -2.2190    -2.1340    -0.0040 nz         1 383      -0.792600
     16 O22         -7.9920     0.2230     2.0010 o          1 383      -0.816800
     17 C6          -6.8710    -2.1570     3.6010 c3         1 383       0.139500
     18 N5          -6.2970    -1.5260     4.7900 n3         1 383      -0.455100
     19 C4          -6.8230    -2.2420     5.9670 c3         1 383       0.296300
     20 C3          -6.1340    -3.6490     5.9670 c3         1 383       0.087100
     21 C2          -6.9590    -4.3180     4.8270 c3         1 383       0.067800
     22 C1          -6.4810    -3.6350     3.5260 c3         1 383       0.169100
     23 O28         -6.8540    -0.1750     4.8390 oh         1 383      -0.362300
     24 O29         -6.8760    -5.7440     4.8010 oh         1 383      -0.579800
     25 C30         -8.3820    -3.7660     5.0980 c3         1 383       0.101400
     26 O31         -8.2220    -2.5150     5.7770 os         1 383      -0.403600
     27 O32         -4.7470    -3.5520     5.6370 oh         1 383      -0.582800
     28 O64         -7.1140    -4.2460     2.3990 oh         1 383      -0.585800
     29 O13          3.4320    -0.0000     1.2040 oh         1 383      -0.510100
     30 H8          -0.5410    -0.0030    -0.9390 ha         1 383       0.137000
     31 H7           1.9220    -0.0010    -0.9380 ha         1 383       0.153500
     32 H11          1.9140     0.0050     3.3410 ha         1 383       0.153500
     33 H10         -0.5510     0.0090     3.3320 ha         1 383       0.137000
     34 H141        -2.5600     0.5110     0.3070 hc         1 383       0.113700
     35 H142        -2.5630     0.5130     2.0760 hc         1 383       0.113700
     36 H15         -2.3510    -1.9500     2.0790 hx         1 383       0.104700
     37 H19         -4.3940    -1.4070     3.2230 hn         1 383       0.330500
     38 H20         -6.7180    -1.9490     1.4680 h1         1 383       0.095700
     39 H161        -2.3080    -1.5320    -0.7980 hn         1 383       0.452467
     40 H162        -2.7560    -2.9650    -0.1520 hn         1 383       0.452467
     41 H6          -7.9510    -2.0760     3.6410 h1         1 383       0.113700
     42 H4          -6.6370    -1.7020     6.8870 h2         1 383       0.102700
     43 H3          -6.2840    -4.1590     6.9110 h1         1 383       0.051700
     44 H1          -5.4050    -3.7270     3.4370 h1         1 383       0.049700
     45 H28         -6.4520     0.3060     5.5440 ho         1 383       0.399000
     46 H29         -7.3380    -6.0990     5.5430 ho         1 383       0.408000
     47 H301        -8.9350    -4.4580     5.7220 h1         1 383       0.065700
     48 H302        -8.9040    -3.6140     4.1610 h1         1 383       0.065700
     49 H32         -4.2290    -3.8760     6.3540 ho         1 383       0.401000
     50 H64         -6.6070    -4.9900     2.1190 ho         1 383       0.404000
     51 H13          3.7460    -0.8890     1.1680 ho         1 383       0.424000
     52 H163        -1.2590    -2.3870     0.1280 hn         1 383       0.452467
@<TRIPOS>BOND
     1     1     2 ar
     2     1     6 ar
     3     1    30 1
     4     2     3 ar
     5     2    31 1
     6     3     4 ar
     7     3    29 1
     8     4     5 ar
     9     4    32 1
    10     5     6 ar
    11     5    33 1
    12     6     7 1
    13     7     8 1
    14     7    34 1
    15     7    35 1
    16     8     9 1
    17     8    15 1
    18     8    36 1
    19     9    10 1
    20     9    14 2
    21    10    11 1
    22    10    37 1
    23    11    12 1
    24    11    17 1
    25    11    38 1
    26    12    13 1
    27    12    16 1
    28    15    39 1
    29    15    40 1
    30    17    18 1
    31    17    22 1
    32    17    41 1
    33    18    19 1
    34    18    23 1
    35    19    20 1
    36    19    26 1
    37    19    42 1
    38    20    21 1
    39    20    27 1
    40    20    43 1
    41    21    22 1
    42    21    24 1
    43    21    25 1
    44    22    28 1
    45    22    44 1
    46    23    45 1
    47    24    46 1
    48    25    26 1
    49    25    47 1
    50    25    48 1
    51    27    49 1
    52    28    50 1
    53    29    51 1
    54    52    15 1
@<TRIPOS>SUBSTRUCTURE
     1 383         1 TEMP              0 ****  ****    0 ROOT
