@<TRIPOS>MOLECULE
384
   59    61     1     0     0
SMALL
bcc


@<TRIPOS>ATOM
      1 CBA          0.0000     0.0000     0.0000 c3         1 384       0.249700
      2 OAZ          1.4290     0.0000     0.0000 os         1 384      -0.422600
      3 CAY          2.0110     0.0000     1.3050 c3         1 384       0.205400
      4 CAX          3.5320    -0.1210     1.1860 c3         1 384       0.192400
      5 OAW          4.0540     1.0510     0.5570 os         1 384      -0.380600
      6 CAF          5.4510     0.9810     0.2660 c3         1 384       0.148100
      7 CAA          5.7640     1.8340    -0.9630 c3         1 384       0.025000
      8 NAB          4.9610     3.0560    -0.9640 n          1 384      -0.117800
      9 CBB          3.9270     3.2130    -2.0020 c3         1 384       0.045000
     10 CBC          2.5760     2.7570    -1.4490 c3         1 384       0.167400
     11 OBD          2.1680     3.6370    -0.4000 os         1 384      -0.384600
     12 CBE          0.8730     3.3480     0.1320 c3         1 384       0.242700
     13 C            5.1160     4.0450    -0.0770 c          1 384       0.605500
     14 O            4.4280     5.0490    -0.1980 o          1 384      -0.648500
     15 CA           6.0950     3.9610     1.0630 c3         1 384       0.148500
     16 CB           7.5170     3.8640     0.5130 c3         1 384      -0.052400
     17 CAH          8.3350     2.8550     1.3030 c3         1 384      -0.013400
     18 CAI          7.7430     1.4540     1.2130 c3         1 384      -0.044400
     19 CAE          6.2440     1.4670     1.4730 c3         1 384       0.170500
     20 N            5.8030     2.7920     1.8940 n3         1 384      -0.487500
     21 SAK          4.9690     2.9710     3.3150 sy         1 384       1.053200
     22 OAL          4.2220     4.1740     3.1940 o          1 384      -0.573800
     23 OAM          4.3740     1.7110     3.5930 o          1 384      -0.573800
     24 CAN          6.1580     3.2510     4.5860 ca         1 384      -0.145500
     25 CAS          6.5510     4.5400     4.8920 ca         1 384       0.003500
     26 CAR          7.4850     4.7600     5.8890 ca         1 384      -0.063600
     27 Cl1          7.9790     6.3800     6.2740 cl         1 384      -0.003900
     28 CAQ          8.0250     3.6900     6.5790 ca         1 384      -0.049000
     29 CAP          7.6310     2.3990     6.2720 ca         1 384      -0.063600
     30 Cl2          8.3080     1.0560     7.1370 cl         1 384      -0.003900
     31 CAO          6.6930     2.1810     5.2780 ca         1 384       0.003500
     32 H1          -0.3610     0.6530     0.7850 h1         1 384      -0.012300
     33 H2          -0.3610     0.3530    -0.9580 h1         1 384      -0.012300
     34 H3          -0.3610    -1.0070     0.1730 h1         1 384      -0.012300
     35 H4           1.7610     0.9240     1.8120 h1         1 384       0.006200
     36 H5           1.6260    -0.8390     1.8720 h1         1 384       0.006200
     37 H6           3.7790    -0.9910     0.5910 h1         1 384       0.009200
     38 H7           3.9640    -0.2240     2.1740 h1         1 384       0.009200
     39 H8           5.7220    -0.0470     0.0580 h1         1 384       0.016700
     40 H9           5.5440     1.2640    -1.8570 h1         1 384       0.035700
     41 H10          6.8150     2.0990    -0.9520 h1         1 384       0.035700
     42 H11          4.1860     2.6100    -2.8640 h1         1 384       0.032700
     43 H12          3.8640     4.2540    -2.2950 h1         1 384       0.032700
     44 H13          1.8370     2.7730    -2.2410 h1         1 384       0.008700
     45 H14          2.6660     1.7500    -1.0610 h1         1 384       0.008700
     46 H15          0.3040     4.2660     0.2160 h1         1 384      -0.014633
     47 H16          0.3570     2.6630    -0.5290 h1         1 384      -0.014633
     48 H17          0.9770     2.8970     1.1110 h1         1 384      -0.014633
     49 H18          6.0100     4.8550     1.6690 h1         1 384       0.068700
     50 H19          7.9900     4.8360     0.5810 hc         1 384       0.028200
     51 H20          7.4750     3.5540    -0.5240 hc         1 384       0.028200
     52 H21          8.3620     3.1590     2.3420 hc         1 384       0.016200
     53 H22          9.3440     2.8360     0.9100 hc         1 384       0.016200
     54 H23          8.2230     0.8200     1.9480 hc         1 384       0.021200
     55 H24          7.9250     1.0570     0.2220 hc         1 384       0.021200
     56 H25          6.0490     0.7830     2.2900 h1         1 384       0.047700
     57 H26          6.1070     5.3800     4.3720 ha         1 384       0.136000
     58 H27          8.7560     3.8620     7.3600 ha         1 384       0.125000
     59 H28          6.3840     1.1710     5.0370 ha         1 384       0.136000
@<TRIPOS>BOND
     1     1     2 1   
     2     1    32 1   
     3     1    33 1   
     4     1    34 1   
     5     2     3 1   
     6     3     4 1   
     7     3    35 1   
     8     3    36 1   
     9     4     5 1   
    10     4    37 1   
    11     4    38 1   
    12     5     6 1   
    13     6     7 1   
    14     6    19 1   
    15     6    39 1   
    16     7     8 1   
    17     7    40 1   
    18     7    41 1   
    19     8     9 1   
    20     8    13 1   
    21     9    10 1   
    22     9    42 1   
    23     9    43 1   
    24    10    11 1   
    25    10    44 1   
    26    10    45 1   
    27    11    12 1   
    28    12    46 1   
    29    12    47 1   
    30    12    48 1   
    31    13    14 2   
    32    13    15 1   
    33    15    16 1   
    34    15    20 1   
    35    15    49 1   
    36    16    17 1   
    37    16    50 1   
    38    16    51 1   
    39    17    18 1   
    40    17    52 1   
    41    17    53 1   
    42    18    19 1   
    43    18    54 1   
    44    18    55 1   
    45    19    20 1   
    46    19    56 1   
    47    20    21 1   
    48    21    22 2   
    49    21    23 2   
    50    21    24 1   
    51    24    25 ar  
    52    24    31 ar  
    53    25    26 ar  
    54    25    57 1   
    55    26    27 1   
    56    26    28 ar  
    57    28    29 ar  
    58    28    58 1   
    59    29    30 1   
    60    29    31 ar  
    61    31    59 1   
@<TRIPOS>SUBSTRUCTURE
     1 384         1 TEMP              0 ****  ****    0 ROOT
