@<TRIPOS>MOLECULE
molecule
   59    61     1     0     0
SMALL
bcc


@<TRIPOS>ATOM
      1 CBA          0.0000     0.0000     0.0000 c3         1 384       0.126700
      2 OAZ          1.4290     0.0000     0.0000 os         1 384      -0.433600
      3 CAY          2.0110     0.0000     1.3050 c3         1 384       0.141400
      4 CAX          3.5320    -0.1210     1.1860 c3         1 384       0.131400
      5 OAW          4.0540     1.0510     0.5570 os         1 384      -0.392600
      6 CAF          5.4510     0.9810     0.2660 c3         1 384       0.117100
      7 CAA          5.7640     1.8340    -0.9630 c3         1 384       0.106000
      8 NAB          4.9610     3.0560    -0.9640 n          1 384      -0.463800
      9 CBB          3.9270     3.2130    -2.0020 c3         1 384       0.112000
     10 CBC          2.5760     2.7570    -1.4490 c3         1 384       0.112400
     11 OBD          2.1680     3.6370    -0.4000 os         1 384      -0.400600
     12 CBE          0.8730     3.3480     0.1320 c3         1 384       0.133700
     13 C            5.1160     4.0450    -0.0770 c          1 384       0.692500
     14 O            4.4280     5.0490    -0.1980 o          1 384      -0.608500
     15 CA           6.0950     3.9610     1.0630 c3         1 384       0.186500
     16 CB           7.5170     3.8640     0.5130 c3         1 384      -0.097400
     17 CAH          8.3350     2.8550     1.3030 c3         1 384      -0.068400
     18 CAI          7.7430     1.4540     1.2130 c3         1 384      -0.094400
     19 CAE          6.2440     1.4670     1.4730 c3         1 384       0.217500
     20 N            5.8030     2.7920     1.8940 n3         1 384      -0.783500
     21 SAK          4.9690     2.9710     3.3150 sy         1 384       1.427200
     22 OAL          4.2220     4.1740     3.1940 o          1 384      -0.618800
     23 OAM          4.3740     1.7110     3.5930 o          1 384      -0.618800
     24 CAN          6.1580     3.2510     4.5860 ca         1 384      -0.300500
     25 CAS          6.5510     4.5400     4.8920 ca         1 384      -0.025500
     26 CAR          7.4850     4.7600     5.8890 ca         1 384       0.011400
     27 Cl1          7.9790     6.3800     6.2740 cl         1 384      -0.088400
     28 CAQ          8.0250     3.6900     6.5790 ca         1 384      -0.069000
     29 CAP          7.6310     2.3990     6.2720 ca         1 384       0.011400
     30 Cl2          8.3080     1.0560     7.1370 cl         1 384      -0.088400
     31 CAO          6.6930     2.1810     5.2780 ca         1 384      -0.025500
     32 H1          -0.3610     0.6530     0.7850 h1         1 384       0.030033
     33 H2          -0.3610     0.3530    -0.9580 h1         1 384       0.030033
     34 H3          -0.3610    -1.0070     0.1730 h1         1 384       0.030033
     35 H4           1.7610     0.9240     1.8120 h1         1 384       0.040700
     36 H5           1.6260    -0.8390     1.8720 h1         1 384       0.040700
     37 H6           3.7790    -0.9910     0.5910 h1         1 384       0.041700
     38 H7           3.9640    -0.2240     2.1740 h1         1 384       0.041700
     39 H8           5.7220    -0.0470     0.0580 h1         1 384       0.045700
     40 H9           5.5440     1.2640    -1.8570 h1         1 384       0.057200
     41 H10          6.8150     2.0990    -0.9520 h1         1 384       0.057200
     42 H11          4.1860     2.6100    -2.8640 h1         1 384       0.061700
     43 H12          3.8640     4.2540    -2.2950 h1         1 384       0.061700
     44 H13          1.8370     2.7730    -2.2410 h1         1 384       0.038700
     45 H14          2.6660     1.7500    -1.0610 h1         1 384       0.038700
     46 H15          0.3040     4.2660     0.2160 h1         1 384       0.023367
     47 H16          0.3570     2.6630    -0.5290 h1         1 384       0.023367
     48 H17          0.9770     2.8970     1.1110 h1         1 384       0.023367
     49 H18          6.0100     4.8550     1.6690 h1         1 384       0.099700
     50 H19          7.9900     4.8360     0.5810 hc         1 384       0.056700
     51 H20          7.4750     3.5540    -0.5240 hc         1 384       0.056700
     52 H21          8.3620     3.1590     2.3420 hc         1 384       0.046700
     53 H22          9.3440     2.8360     0.9100 hc         1 384       0.046700
     54 H23          8.2230     0.8200     1.9480 hc         1 384       0.048200
     55 H24          7.9250     1.0570     0.2220 hc         1 384       0.048200
     56 H25          6.0490     0.7830     2.2900 h1         1 384       0.067700
     57 H26          6.1070     5.3800     4.3720 ha         1 384       0.166500
     58 H27          8.7560     3.8620     7.3600 ha         1 384       0.161000
     59 H28          6.3840     1.1710     5.0370 ha         1 384       0.166500
@<TRIPOS>BOND
     1    30    29 1
     2    28    29 ar
     3    28    26 ar
     4     1     2 1
     5    29    31 ar
     6    27    26 1
     7    26    25 ar
     8     2     3 1
     9    31    24 ar
    10    10    11 1
    11    10     9 1
    12    11    12 1
    13    25    24 ar
    14     3     4 1
    15    24    21 1
    16     5     4 1
    17     5     6 1
    18     7     8 1
    19     7     6 1
    20     9     8 1
    21     8    13 1
    22     6    19 1
    23    21    20 1
    24    21    22 2
    25    21    23 2
    26    20    19 1
    27    20    15 1
    28    13    14 2
    29    13    15 1
    30    19    18 1
    31    15    16 1
    32    18    17 1
    33    16    17 1
    34     1    32 1
    35     1    33 1
    36     1    34 1
    37     3    35 1
    38     3    36 1
    39     4    37 1
    40     4    38 1
    41     6    39 1
    42     7    40 1
    43     7    41 1
    44     9    42 1
    45     9    43 1
    46    10    44 1
    47    10    45 1
    48    12    46 1
    49    12    47 1
    50    12    48 1
    51    15    49 1
    52    16    50 1
    53    16    51 1
    54    17    52 1
    55    17    53 1
    56    18    54 1
    57    18    55 1
    58    19    56 1
    59    25    57 1
    60    28    58 1
    61    31    59 1
@<TRIPOS>SUBSTRUCTURE
     1 384         1 TEMP              0 ****  ****    0 ROOT
