@<TRIPOS>MOLECULE
386
   46    50     1     0     0
SMALL
bcc


@<TRIPOS>ATOM
      1 N1           0.0000     0.0000     0.0000 ns         1 386      -0.061400
      2 C2          -2.8360    -0.0110    -0.3060 ca         1 386      -0.045000
      3 O2           0.2050    -0.0050    -2.2120 o          1 386      -0.588100
      4 N3           3.6060    -0.0060     3.6740 ns         1 386       0.030600
      5 C4          -4.2020    -0.0170    -0.4800 ca         1 386      -0.131000
      6 N4           5.7690    -0.0010     4.8040 na         1 386       0.258700
      7 C5          -3.9220    -0.0330    -2.8640 ca         1 386      -0.212000
      8 C6          -4.7440    -0.0290    -1.7560 ca         1 386      -0.014000
      9 C19          8.0800    -0.4180    10.2450 c3         1 386       0.739200
     10 F4           8.1800    -1.8070    10.3840 f          1 386      -0.191300
     11 O4           8.5850     0.0010     8.9630 os         1 386      -0.298900
     12 C15          7.5050    -0.0010     8.1260 ca         1 386       0.055100
     13 C17          7.4220     0.0010     6.7470 ca         1 386      -0.052000
     14 O5           6.7000    -0.0100    10.2200 os         1 386      -0.296900
     15 C16          6.3430    -0.0070     8.9010 ca         1 386       0.043100
     16 C18          5.1030    -0.0110     8.2950 ca         1 386      -0.026000
     17 C20          5.0090    -0.0090     6.9010 ca         1 386       0.092400
     18 C14          6.1810    -0.0020     6.1270 ca         1 386      -0.269200
     19 N5           3.9590    -0.0110     6.0370 nc         1 386      -0.564100
     20 C13          4.4030    -0.0060     4.8050 cd         1 386       0.145400
     21 C12          4.1730    -0.0000     2.4510 c          1 386       0.504600
     22 O3           5.3850     0.0050     2.3420 o          1 386      -0.671100
     23 C10          3.3270     0.0000     1.2480 cc         1 386       0.262800
     24 C11          3.8400     0.0000     0.0000 cd         1 386      -0.085400
     25 S            2.5600     0.0010    -1.1350 ss         1 386      -0.178300
     26 N2           1.9910    -0.0060     1.3090 nc         1 386      -0.625000
     27 C9           1.3770     0.0000     0.1680 cd         1 386       0.422300
     28 C8          -0.5270    -0.0050    -1.2410 c          1 386       0.575700
     29 C1          -1.9910    -0.0110    -1.4200 ca         1 386      -0.188600
     30 C3          -2.5440    -0.0160    -2.7080 ca         1 386       0.213100
     31 O1          -1.7340    -0.0170    -3.7970 os         1 386      -0.274900
     32 C7          -2.3680    -0.0230    -5.0770 c3         1 386       0.749700
     33 F3          -3.1630    -1.1690    -5.1990 f          1 386      -0.195633
     34 F2          -3.1710     1.1160    -5.2040 f          1 386      -0.195633
     35 F1          -1.3940    -0.0220    -6.0810 f          1 386      -0.195633
     36 H1          -0.6020     0.0370     0.7990 hn         1 386       0.184500
     37 H2          -2.4160    -0.0030     0.6930 ha         1 386       0.107000
     38 H3           2.6100    -0.0100     3.7640 hn         1 386       0.202500
     39 H4          -4.8560    -0.0160     0.3840 ha         1 386       0.115000
     40 H5           6.3560    -0.1310     4.0050 hn         1 386       0.181700
     41 H6          -4.3530    -0.0390    -3.8580 ha         1 386       0.139000
     42 H7          -5.8200    -0.0370    -1.8840 ha         1 386       0.110000
     43 H8           8.3250     0.0410     6.1500 ha         1 386       0.116000
     44 H9           4.2050     0.0350     8.8990 ha         1 386       0.123000
     45 H11          4.8960     0.0000    -0.2440 h4         1 386       0.179000
     46 F5           8.7660     0.2290    11.2780 f          1 386      -0.191300
@<TRIPOS>BOND
     1     1    27 1   
     2     1    28 1   
     3     1    36 1   
     4     2     5 ar  
     5     2    29 ar  
     6     2    37 1   
     7     3    28 2   
     8     4    20 1   
     9     4    21 1   
    10     4    38 1   
    11     5     8 ar  
    12     5    39 1   
    13     6    18 1   
    14     6    20 1   
    15     6    40 1   
    16     7     8 ar  
    17     7    30 ar  
    18     7    41 1   
    19     8    42 1   
    20     9    10 1   
    21     9    11 1   
    22     9    14 1   
    23     9    46 1   
    24    11    12 1   
    25    12    13 ar  
    26    12    15 ar  
    27    13    18 ar  
    28    13    43 1   
    29    14    15 1   
    30    15    16 ar  
    31    16    17 ar  
    32    16    44 1   
    33    17    18 ar  
    34    17    19 1   
    35    19    20 2   
    36    21    22 2   
    37    21    23 1   
    38    23    24 2   
    39    23    26 1   
    40    24    25 1   
    41    24    45 1   
    42    25    27 1   
    43    26    27 2   
    44    28    29 1   
    45    29    30 ar  
    46    30    31 1   
    47    31    32 1   
    48    32    33 1   
    49    32    34 1   
    50    32    35 1   
@<TRIPOS>SUBSTRUCTURE
     1 386         1 TEMP              0 ****  ****    0 ROOT
