@<TRIPOS>MOLECULE
molecule
   46    50     1     0     0
SMALL
bcc


@<TRIPOS>ATOM
      1 N1           0.0000     0.0000     0.0000 ns         1 386      -0.517400
      2 C2          -2.8360    -0.0110    -0.3060 ca         1 386      -0.071000
      3 O2           0.2050    -0.0050    -2.2120 o          1 386      -0.563100
      4 N3           3.6060    -0.0060     3.6740 ns         1 386      -0.439400
      5 C4          -4.2020    -0.0170    -0.4800 ca         1 386      -0.156000
      6 N4           5.7690    -0.0010     4.8040 na         1 386      -0.256300
      7 C5          -3.9220    -0.0330    -2.8640 ca         1 386      -0.212000
      8 C6          -4.7440    -0.0290    -1.7560 ca         1 386      -0.055000
      9 C19          8.0800    -0.4180    10.2450 c3         1 386       0.748200
     10 F4           8.1800    -1.8070    10.3840 f          1 386      -0.184800
     11 O4           8.5850     0.0010     8.9630 os         1 386      -0.313900
     12 C15          7.5050    -0.0010     8.1260 ca         1 386       0.051100
     13 C17          7.4220     0.0010     6.7470 ca         1 386      -0.094000
     14 O5           6.7000    -0.0100    10.2200 os         1 386      -0.312900
     15 C16          6.3430    -0.0070     8.9010 ca         1 386       0.036100
     16 C18          5.1030    -0.0110     8.2950 ca         1 386      -0.057000
     17 C20          5.0090    -0.0090     6.9010 ca         1 386       0.123400
     18 C14          6.1810    -0.0020     6.1270 ca         1 386      -0.089200
     19 N5           3.9590    -0.0110     6.0370 nc         1 386      -0.642100
     20 C13          4.4030    -0.0060     4.8050 cd         1 386       0.504400
     21 C12          4.1730    -0.0000     2.4510 c          1 386       0.616600
     22 O3           5.3850     0.0050     2.3420 o          1 386      -0.615100
     23 C10          3.3270     0.0000     1.2480 cd         1 386       0.314800
     24 C11          3.8400     0.0000     0.0000 cc         1 386      -0.192400
     25 S            2.5600     0.0010    -1.1350 ss         1 386      -0.019300
     26 N2           1.9910    -0.0060     1.3090 nd         1 386      -0.732000
     27 C9           1.3770     0.0000     0.1680 cc         1 386       0.556300
     28 C8          -0.5270    -0.0050    -1.2410 c          1 386       0.678700
     29 C1          -1.9910    -0.0110    -1.4200 ca         1 386      -0.166600
     30 C3          -2.5440    -0.0160    -2.7080 ca         1 386       0.193100
     31 O1          -1.7340    -0.0170    -3.7970 os         1 386      -0.304900
     32 C7          -2.3680    -0.0230    -5.0770 c3         1 386       0.791700
     33 F3          -3.1630    -1.1690    -5.1990 f          1 386      -0.201300
     34 F2          -3.1710     1.1160    -5.2040 f          1 386      -0.201300
     35 F1          -1.3940    -0.0220    -6.0810 f          1 386      -0.201300
     36 H1          -0.6020     0.0370     0.7990 hn         1 386       0.346500
     37 H2          -2.4160    -0.0030     0.6930 ha         1 386       0.137000
     38 H3           2.6100    -0.0100     3.7640 hn         1 386       0.375500
     39 H4          -4.8560    -0.0160     0.3840 ha         1 386       0.145000
     40 H5           6.3560    -0.1310     4.0050 hn         1 386       0.341700
     41 H6          -4.3530    -0.0390    -3.8580 ha         1 386       0.161000
     42 H7          -5.8200    -0.0370    -1.8840 ha         1 386       0.146000
     43 H8           8.3250     0.0410     6.1500 ha         1 386       0.149000
     44 H9           4.2050     0.0350     8.8990 ha         1 386       0.161000
     45 H11          4.8960     0.0000    -0.2440 h4         1 386       0.204000
     46 F5           8.7660     0.2290    11.2780 f          1 386      -0.184800
@<TRIPOS>BOND
     1    24    25 1   
     2    24    23 2   
     3     6    18 1   
     4     6    20 1   
     5    13    18 ar  
     6    13    12 ar  
     7    25    27 1   
     8     4    20 1   
     9     4    21 1   
    10    18    17 ar  
    11    11    12 1   
    12    11     9 1   
    13    20    19 2   
    14    12    15 ar  
    15    23    21 1   
    16    23    26 1   
    17    33    32 1   
    18     3    28 2   
    19    21    22 2   
    20    27    26 2   
    21    27     1 1   
    22    17    19 1   
    23    17    16 ar  
    24     9    46 1   
    25     9    10 1   
    26     9    14 1   
    27    15    16 ar  
    28    15    14 1   
    29    28     1 1   
    30    28    29 1   
    31    32    34 1   
    32    32    31 1   
    33    32    35 1   
    34    31    30 1   
    35    29    30 ar  
    36    29     2 ar  
    37    30     7 ar  
    38     2     5 ar  
    39     7     8 ar  
    40     5     8 ar  
    41     1    36 1   
    42     2    37 1   
    43     4    38 1   
    44     5    39 1   
    45     6    40 1   
    46     7    41 1   
    47     8    42 1   
    48    13    43 1   
    49    16    44 1   
    50    24    45 1   
@<TRIPOS>SUBSTRUCTURE
     1 386         1 TEMP              0 ****  ****    0 ROOT
