@<TRIPOS>MOLECULE
387
   43    44     1     0     0
SMALL
bcc


@<TRIPOS>ATOM
      1 CAI          0.0000     0.0000     0.0000 ca         1 387      -0.087000
      2 CAU          1.3840     0.0000     0.0000 ca         1 387      -0.026600
      3 ClC          2.2510     0.0000    -1.5040 cl         1 387      -0.017400
      4 CAH          2.0750     0.0000     1.1980 ca         1 387      -0.098000
      5 CAV          1.3830    -0.0000     2.3960 ca         1 387      -0.026600
      6 ClD          2.2500     0.0000     3.9000 cl         1 387      -0.017400
      7 CAJ         -0.0000     0.0000     2.3940 ca         1 387      -0.087000
      8 CAW         -0.6910     0.0060     1.1970 ca         1 387      -0.075300
      9 CAO         -2.1980     0.0060     1.1970 c3         1 387       0.203100
     10 NAP         -2.6870     1.3910     1.2020 n7         1 387      -0.584200
     11 CAM         -4.1550     1.4310     1.2020 c3         1 387       0.149800
     12 CAL         -4.6260     2.8870     1.2070 c3         1 387      -0.044400
     13 CAN         -6.1560     2.9280     1.2080 c3         1 387       0.067000
     14 NAQ         -6.6060     4.3220     1.2130 ns         1 387      -0.220900
     15 CAS         -7.9250     4.6040     1.2140 c          1 387       0.566100
     16 OAA         -8.7390     3.7010     1.2100 o          1 387      -0.688100
     17 NAR         -8.3390     5.8860     1.2190 ns         1 387      -0.054100
     18 CAX         -9.7030     6.1810     1.1220 ca         1 387      -0.054400
     19 CAK        -10.6380     5.3460     1.7190 ca         1 387      -0.143000
     20 CAG        -10.1240     7.3120     0.4340 ca         1 387      -0.158000
     21 CAE        -11.4710     7.6030     0.3390 ca         1 387      -0.064000
     22 CAF        -12.4040     6.7700     0.9280 ca         1 387      -0.158000
     23 CAT        -11.9890     5.6420     1.6210 ca         1 387       0.142100
     24 OAB        -12.9070     4.8240     2.1990 oh         1 387      -0.497100
     25 H1          -0.5420     0.0040    -0.9380 ha         1 387       0.120000
     26 H2           3.1590    -0.0000     1.1990 ha         1 387       0.126000
     27 H3          -0.5430     0.0020     3.3320 ha         1 387       0.120000
     28 H4          -2.5600    -0.5080     2.0790 h1         1 387       0.013700
     29 H5          -4.5300     0.9340     0.3160 h1         1 387       0.011200
     30 H6          -4.5300     0.9270     2.0850 h1         1 387       0.011200
     31 H7          -4.2510     3.3910     0.3250 hc         1 387       0.021700
     32 H8          -4.2510     3.3840     2.0940 hc         1 387       0.021700
     33 H9          -6.5310     2.4300     0.3210 h1         1 387       0.027200
     34 H10         -6.5310     2.4240     2.0910 h1         1 387       0.027200
     35 H11         -5.9360     5.0640     1.2360 hn         1 387       0.168500
     36 H12         -7.6700     6.6280     1.2800 hn         1 387       0.160500
     37 H13        -10.3130     4.4660     2.2600 ha         1 387       0.160000
     38 H14         -9.3950     7.9660    -0.0290 ha         1 387       0.104000
     39 H15        -11.7970     8.4850    -0.2000 ha         1 387       0.101000
     40 H16        -13.4600     7.0010     0.8510 ha         1 387       0.113000
     41 H17        -13.0880     5.1240     3.0740 ho         1 387       0.400000
     42 H18         -2.5590    -0.5010     0.3100 h1         1 387       0.013700
     43 H19         -2.3400     1.8710     0.3950 hn         1 387       0.255800
@<TRIPOS>BOND
     1     1     2 ar  
     2     1     8 ar  
     3     1    25 1   
     4     2     3 1   
     5     2     4 ar  
     6     4     5 ar  
     7     4    26 1   
     8     5     6 1   
     9     5     7 ar  
    10     7     8 ar  
    11     7    27 1   
    12     8     9 1   
    13     9    10 1   
    14     9    28 1   
    15     9    42 1   
    16    10    11 1   
    17    10    43 1   
    18    11    12 1   
    19    11    29 1   
    20    11    30 1   
    21    12    13 1   
    22    12    31 1   
    23    12    32 1   
    24    13    14 1   
    25    13    33 1   
    26    13    34 1   
    27    14    15 1   
    28    14    35 1   
    29    15    16 2   
    30    15    17 1   
    31    17    18 1   
    32    17    36 1   
    33    18    19 ar  
    34    18    20 ar  
    35    19    23 ar  
    36    19    37 1   
    37    20    21 ar  
    38    20    38 1   
    39    21    22 ar  
    40    21    39 1   
    41    22    23 ar  
    42    22    40 1   
    43    23    24 1   
    44    24    41 1   
@<TRIPOS>SUBSTRUCTURE
     1 387         1 TEMP              0 ****  ****    0 ROOT
