@<TRIPOS>MOLECULE
molecule
   43    44     1     0     0
SMALL
bcc


@<TRIPOS>ATOM
      1 CAI          0.0000     0.0000     0.0000 ca         1 387      -0.110000
      2 CAU          1.3840     0.0000     0.0000 ca         1 387       0.034900
      3 ClC          2.2510     0.0000    -1.5040 cl         1 387      -0.097400
      4 CAH          2.0750     0.0000     1.1980 ca         1 387      -0.116000
      5 CAV          1.3830    -0.0000     2.3960 ca         1 387       0.034900
      6 ClD          2.2500     0.0000     3.9000 cl         1 387      -0.097400
      7 CAJ         -0.0000     0.0000     2.3940 ca         1 387      -0.110000
      8 CAW         -0.6910     0.0060     1.1970 ca         1 387      -0.069300
      9 CAO         -2.1980     0.0060     1.1970 c3         1 387       0.206100
     10 NAP         -2.6870     1.3910     1.2020 n7         1 387      -0.816200
     11 CAM         -4.1550     1.4310     1.2020 c3         1 387       0.160800
     12 CAL         -4.6260     2.8870     1.2070 c3         1 387      -0.103400
     13 CAN         -6.1560     2.9280     1.2080 c3         1 387       0.130000
     14 NAQ         -6.6060     4.3220     1.2130 ns         1 387      -0.602900
     15 CAS         -7.9250     4.6040     1.2140 c          1 387       0.781100
     16 OAA         -8.7390     3.7010     1.2100 o          1 387      -0.640100
     17 NAR         -8.3390     5.8860     1.2190 ns         1 387      -0.493100
     18 CAX         -9.7030     6.1810     1.1220 ca         1 387       0.084600
     19 CAK        -10.6380     5.3460     1.7190 ca         1 387      -0.152000
     20 CAG        -10.1240     7.3120     0.4340 ca         1 387      -0.176000
     21 CAE        -11.4710     7.6030     0.3390 ca         1 387      -0.100000
     22 CAF        -12.4040     6.7700     0.9280 ca         1 387      -0.173000
     23 CAT        -11.9890     5.6420     1.6210 ca         1 387       0.120100
     24 OAB        -12.9070     4.8240     2.1990 oh         1 387      -0.517100
     25 H1          -0.5420     0.0040    -0.9380 ha         1 387       0.149500
     26 H2           3.1590    -0.0000     1.1990 ha         1 387       0.158000
     27 H3          -0.5430     0.0020     3.3320 ha         1 387       0.149500
     28 H4          -2.5600    -0.5080     2.0790 h1         1 387       0.044700
     29 H5          -4.5300     0.9340     0.3160 h1         1 387       0.038200
     30 H6          -4.5300     0.9270     2.0850 h1         1 387       0.038200
     31 H7          -4.2510     3.3910     0.3250 hc         1 387       0.053200
     32 H8          -4.2510     3.3840     2.0940 hc         1 387       0.053200
     33 H9          -6.5310     2.4300     0.3210 h1         1 387       0.055700
     34 H10         -6.5310     2.4240     2.0910 h1         1 387       0.055700
     35 H11         -5.9360     5.0640     1.2360 hn         1 387       0.308500
     36 H12         -7.6700     6.6280     1.2800 hn         1 387       0.317500
     37 H13        -10.3130     4.4660     2.2600 ha         1 387       0.179000
     38 H14         -9.3950     7.9660    -0.0290 ha         1 387       0.128000
     39 H15        -11.7970     8.4850    -0.2000 ha         1 387       0.133000
     40 H16        -13.4600     7.0010     0.8510 ha         1 387       0.139000
     41 H17        -13.0880     5.1240     3.0740 ho         1 387       0.417000
     42 H18         -2.5590    -0.5010     0.3100 h1         1 387       0.044700
     43 H19         -2.3400     1.8710     0.3950 hn         1 387       0.357800
@<TRIPOS>BOND
     1    24    23 1
     2    22    23 ar
     3    22    21 ar
     4    23    19 ar
     5    21    20 ar
     6    19    18 ar
     7    20    18 ar
     8    18    17 1
     9    17    15 1
    10    16    15 2
    11    15    14 1
    12    14    13 1
    13    13    12 1
    14    12    11 1
    15    11    10 1
    16    10     9 1
    17     6     5 1
    18     8     7 ar
    19     8     1 ar
    20     8     9 1
    21     5     4 ar
    22     5     7 ar
    23     4     2 ar
    24     2     1 ar
    25     2     3 1
    26     1    25 1
    27     4    26 1
    28     7    27 1
    29     9    28 1
    30    11    29 1
    31    11    30 1
    32    12    31 1
    33    12    32 1
    34    13    33 1
    35    13    34 1
    36    14    35 1
    37    17    36 1
    38    19    37 1
    39    20    38 1
    40    21    39 1
    41    22    40 1
    42    24    41 1
    43     9    42 1
    44    10    43 1
@<TRIPOS>SUBSTRUCTURE
     1 387         1 TEMP              0 ****  ****    0 ROOT
