@<TRIPOS>MOLECULE
molecule
   35    36     1     0     0
SMALL
bcc


@<TRIPOS>ATOM
      1 C1           0.0000     0.0000     0.0000 c3         1 388       0.164300
      2 N10          1.4450     0.0000     0.0000 ns         1 388      -0.563900
      3 C11          2.2180     0.0000     1.1660 c          1 388       0.687700
      4 O12          1.7150     0.0000     2.3020 o          1 388      -0.643100
      5 C2          -0.5610     1.3920    -0.0490 ca         1 388      -0.150300
      6 C7          -0.8210     1.9890    -1.2770 ca         1 388       0.188900
      7 F9          -0.5720     1.3380    -2.4210 f          1 388      -0.107900
      8 C6          -1.3430     3.2820    -1.3190 ca         1 388      -0.134000
      9 C5          -1.6030     3.9680    -0.1330 ca         1 388       0.011100
     10 Br8         -2.3080     5.7200    -0.1900 br         1 388      -0.115100
     11 C4          -1.3390     3.3620     1.0960 ca         1 388      -0.141000
     12 C3          -0.8180     2.0690     1.1380 ca         1 388      -0.086000
     13 C8           3.6640     0.0250     1.0000 ca         1 388      -0.176600
     14 C9           4.4690    -0.5820     1.9630 ca         1 388      -0.053000
     15 C10          5.8560    -0.5690     1.8230 ca         1 388      -0.179000
     16 C12          6.4400     0.0520     0.7170 ca         1 388       0.059400
     17 Cl1          8.1520     0.0680     0.5430 cl         1 388      -0.121400
     18 C14          5.6340     0.6580    -0.2470 ca         1 388      -0.185000
     19 C15          4.2470     0.6450    -0.1060 ca         1 388       0.181100
     20 O20          3.4770     1.2440    -1.0590 os         1 388      -0.341900
     21 C21          3.6840     2.6390    -1.2750 c3         1 388       0.037400
     22 C22          2.7450     3.1320    -2.3400 c          1 388       0.897600
     23 O24          1.9410     2.4500    -2.9560 o          1 388      -0.825300
     24 O23          2.9130     4.4650    -2.5310 o          1 388      -0.825300
     25 H11         -0.3520    -0.4900     0.8990 h1         1 388       0.052700
     26 H12         -0.3520    -0.5520    -0.8630 h1         1 388       0.052700
     27 HN10         1.9190    -0.0030    -0.8820 hn         1 388       0.355500
     28 H6          -1.5470     3.7530    -2.2730 ha         1 388       0.163000
     29 H4          -1.5410     3.8950     2.0170 ha         1 388       0.134000
     30 H3          -0.6120     1.5960     2.0910 ha         1 388       0.150000
     31 H9           4.0160    -1.0630     2.8220 ha         1 388       0.150000
     32 H10          6.4810    -1.0400     2.5720 ha         1 388       0.135000
     33 H14          6.0870     1.1400    -1.1050 ha         1 388       0.161000
     34 H211         4.7060     2.8070    -1.5900 h1         1 388       0.033700
     35 H212         3.4980     3.1770    -0.3530 h1         1 388       0.033700
@<TRIPOS>BOND
     1     1     5 1   
     2     1     2 1   
     3     1    25 1   
     4     1    26 1   
     5     2     3 1   
     6     2    27 1   
     7     3     4 2   
     8     3    13 1   
     9     5     6 ar  
    10     5    12 ar  
    11     6     8 ar  
    12     6     7 1   
    13     8     9 ar  
    14     8    28 1   
    15     9    10 1   
    16     9    11 ar  
    17    11    12 ar  
    18    11    29 1   
    19    12    30 1   
    20    13    14 ar  
    21    13    19 ar  
    22    14    15 ar  
    23    14    31 1   
    24    15    16 ar  
    25    15    32 1   
    26    16    18 ar  
    27    16    17 1   
    28    18    19 ar  
    29    18    33 1   
    30    19    20 1   
    31    20    21 1   
    32    21    22 1   
    33    21    34 1   
    34    21    35 1   
    35    22    23 1   
    36    22    24 1   
@<TRIPOS>SUBSTRUCTURE
     1 388         1 TEMP              0 ****  ****    0 ROOT
