@<TRIPOS>MOLECULE
389
   71    73     1     0     0
SMALL
bcc


@<TRIPOS>ATOM
      1 N1           0.0000     0.0000     0.0000 nz         1 389       0.088400
      2 C2           1.4890     0.0000     0.0000 c3         1 389      -0.157500
      3 C3           2.0290     0.0000     1.4240 c3         1 389       0.005900
      4 C4           2.0090    -1.2040    -0.7800 c          1 389       0.541100
      5 O5           1.2910    -2.1820    -0.9650 o          1 389      -0.659100
      6 N6           3.2420    -1.0920    -1.2720 ns         1 389      -0.049900
      7 C7           3.9170    -2.1600    -2.0070 c3         1 389      -0.088300
      8 C8           4.0460    -1.8560    -3.5300 c3         1 389      -0.057700
      9 C9           2.6870    -1.9690    -4.2390 c3         1 389       0.000900
     10 C10          4.6870    -0.4840    -3.7740 c3         1 389       0.000900
     11 C11          5.3190    -2.3330    -1.4170 c          1 389       0.585100
     12 O12          5.8820    -1.3890    -0.8560 o          1 389      -0.669100
     13 N13          5.8840    -3.5450    -1.5300 n          1 389      -0.083800
     14 C14          7.2630    -3.7300    -1.0940 c3         1 389      -0.055300
     15 C15          7.4700    -5.2480    -1.1990 c3         1 389      -0.022400
     16 C16          6.4380    -5.7270    -2.1390 c3         1 389      -0.041400
     17 C17          5.2830    -4.7840    -2.0450 c3         1 389       0.057000
     18 C18          8.2440    -2.9550    -1.9930 c          1 389       0.558100
     19 O19          7.9260    -2.6900    -3.1540 o          1 389      -0.659100
     20 C20         10.3080    -1.7200    -2.2690 c3         1 389       0.029000
     21 N21          9.4140    -2.5700    -1.4750 ns         1 389      -0.143900
     22 C22         11.6750    -1.4890    -1.6390 c3         1 389       0.064900
     23 C23         12.5270    -0.8310    -2.6570 ca         1 389      -0.096800
     24 C24         12.4350     0.5390    -2.8930 ca         1 389      -0.096500
     25 C25         13.2500     1.1310    -3.8570 ca         1 389      -0.096000
     26 C26         14.1500     0.3570    -4.5780 ca         1 389      -0.094500
     27 C27         14.2360    -1.0130    -4.3430 ca         1 389      -0.096000
     28 C28         13.4250    -1.6070    -3.3840 ca         1 389      -0.096500
     29 C29         11.6510    -0.7460    -0.3440 ca         1 389      -0.096800
     30 C30         10.5410    -0.0270     0.1040 ca         1 389      -0.096500
     31 C31         10.5760     0.6230     1.3290 ca         1 389      -0.096000
     32 C32         11.7060     0.5690     2.1300 ca         1 389      -0.094500
     33 C33         12.8130    -0.1510     1.6910 ca         1 389      -0.096000
     34 C34         12.7860    -0.8050     0.4640 ca         1 389      -0.096500
     35 HN1         -0.3340     0.0950    -0.9390 hn         1 389       0.229800
     36 HN1A        -0.3340    -0.8610     0.3870 hn         1 389       0.229800
     37 H2           1.8310     0.9010    -0.4950 hx         1 389       0.085700
     38 H3           1.8700    -0.9740     1.8700 hc         1 389       0.042033
     39 H3A          1.5110     0.7530     2.0060 hc         1 389       0.042033
     40 H3B          3.0890     0.2220     1.4080 hc         1 389       0.042033
     41 HN6          3.7330    -0.2320    -1.1300 hn         1 389       0.194500
     42 H7           3.3630    -3.0820    -1.8770 h1         1 389       0.075700
     43 H8           4.7020    -2.6050    -3.9590 hc         1 389       0.056700
     44 H9           2.8390    -1.9850    -5.3120 hc         1 389       0.012533
     45 H9A          2.1930    -2.8820    -3.9310 hc         1 389       0.012533
     46 H9B          2.0700    -1.1180    -3.9750 hc         1 389       0.012533
     47 H10          3.9290     0.2870    -3.6960 hc         1 389       0.012533
     48 H10A         5.4570    -0.3080    -3.0330 hc         1 389       0.012533
     49 H10B         5.1260    -0.4610    -4.7640 hc         1 389       0.012533
     50 H14          7.3690    -3.4150    -0.0630 h1         1 389       0.051700
     51 H15          7.3340    -5.7100    -0.2290 hc         1 389       0.032700
     52 H15A         8.4580    -5.4640    -1.5870 hc         1 389       0.032700
     53 H16          6.1220    -6.7250    -1.8600 hc         1 389       0.038700
     54 H16A         6.8320    -5.7270    -3.1480 hc         1 389       0.038700
     55 H17          4.5410    -5.1620    -1.3520 h1         1 389       0.026200
     56 H17A         4.8490    -4.6170    -3.0240 h1         1 389       0.026200
     57 H20          9.8290    -0.7590    -2.4130 h1         1 389       0.039200
     58 H20A        10.4500    -2.1830    -3.2380 h1         1 389       0.039200
     59 HN21         9.7340    -2.9680    -0.6150 hn         1 389       0.178500
     60 H22         12.1060    -2.4630    -1.4400 hc         1 389       0.030700
     61 H24         11.7330     1.1420    -2.3300 ha         1 389       0.109750
     62 H25         13.1830     2.1960    -4.0420 ha         1 389       0.104500
     63 H26         14.7830     0.8190    -5.3270 ha         1 389       0.107000
     64 H27         14.9370    -1.6160    -4.9080 ha         1 389       0.104500
     65 H28         13.4920    -2.6720    -3.2010 ha         1 389       0.109750
     66 H30          9.6500     0.0260    -0.5100 ha         1 389       0.109750
     67 H31          9.7090     1.1800     1.6650 ha         1 389       0.104500
     68 H32         11.7270     1.0790     3.0860 ha         1 389       0.107000
     69 H33         13.7020    -0.2020     2.3090 ha         1 389       0.104500
     70 H34         13.6540    -1.3620     0.1320 ha         1 389       0.109750
     71 H13         -0.3340     0.7430     0.5820 hn         1 389       0.229800
@<TRIPOS>BOND
     1     1     2 1   
     2     1    35 1   
     3     1    36 1   
     4     1    71 1   
     5     2     3 1   
     6     2     4 1   
     7     2    37 1   
     8     3    38 1   
     9     3    39 1   
    10     3    40 1   
    11     4     5 2   
    12     4     6 1   
    13     6     7 1   
    14     6    41 1   
    15     7     8 1   
    16     7    11 1   
    17     7    42 1   
    18     8     9 1   
    19     8    10 1   
    20     8    43 1   
    21     9    44 1   
    22     9    45 1   
    23     9    46 1   
    24    10    47 1   
    25    10    48 1   
    26    10    49 1   
    27    11    12 2   
    28    11    13 1   
    29    13    14 1   
    30    13    17 1   
    31    14    15 1   
    32    14    18 1   
    33    14    50 1   
    34    15    16 1   
    35    15    51 1   
    36    15    52 1   
    37    16    17 1   
    38    16    53 1   
    39    16    54 1   
    40    17    55 1   
    41    17    56 1   
    42    18    19 2   
    43    18    21 1   
    44    20    21 1   
    45    20    22 1   
    46    20    57 1   
    47    20    58 1   
    48    21    59 1   
    49    22    23 1   
    50    22    29 1   
    51    22    60 1   
    52    23    24 ar  
    53    23    28 ar  
    54    24    25 ar  
    55    24    61 1   
    56    25    26 ar  
    57    25    62 1   
    58    26    27 ar  
    59    26    63 1   
    60    27    28 ar  
    61    27    64 1   
    62    28    65 1   
    63    29    30 ar  
    64    29    34 ar  
    65    30    31 ar  
    66    30    66 1   
    67    31    32 ar  
    68    31    67 1   
    69    32    33 ar  
    70    32    68 1   
    71    33    34 ar  
    72    33    69 1   
    73    34    70 1   
@<TRIPOS>SUBSTRUCTURE
     1 389         1 TEMP              0 ****  ****    0 ROOT
