@<TRIPOS>MOLECULE
molecule
   71    73     1     0     0
SMALL
bcc


@<TRIPOS>ATOM
      1 N1           0.0000     0.0000     0.0000 nz         1 389      -0.803600
      2 C2           1.4890     0.0000     0.0000 c3         1 389       0.021500
      3 C3           2.0290     0.0000     1.4240 c3         1 389      -0.114100
      4 C4           2.0090    -1.2040    -0.7800 c          1 389       0.645100
      5 O5           1.2910    -2.1820    -0.9650 o          1 389      -0.608100
      6 N6           3.2420    -1.0920    -1.2720 ns         1 389      -0.504900
      7 C7           3.9170    -2.1600    -2.0070 c3         1 389       0.034700
      8 C8           4.0460    -1.8560    -3.5300 c3         1 389      -0.083700
      9 C9           2.6870    -1.9690    -4.2390 c3         1 389      -0.090100
     10 C10          4.6870    -0.4840    -3.7740 c3         1 389      -0.090100
     11 C11          5.3190    -2.3330    -1.4170 c          1 389       0.666100
     12 O12          5.8820    -1.3890    -0.8560 o          1 389      -0.623100
     13 N13          5.8840    -3.5450    -1.5300 n          1 389      -0.451800
     14 C14          7.2630    -3.7300    -1.0940 c3         1 389       0.030700
     15 C15          7.4700    -5.2480    -1.1990 c3         1 389      -0.083400
     16 C16          6.4380    -5.7270    -2.1390 c3         1 389      -0.096400
     17 C17          5.2830    -4.7840    -2.0450 c3         1 389       0.110000
     18 C18          8.2440    -2.9550    -1.9930 c          1 389       0.648100
     19 O19          7.9260    -2.6900    -3.1540 o          1 389      -0.614100
     20 C20         10.3080    -1.7200    -2.2690 c3         1 389       0.109000
     21 N21          9.4140    -2.5700    -1.4750 ns         1 389      -0.557900
     22 C22         11.6750    -1.4890    -1.6390 c3         1 389       0.014900
     23 C23         12.5270    -0.8310    -2.6570 ca         1 389      -0.089300
     24 C24         12.4350     0.5390    -2.8930 ca         1 389      -0.120250
     25 C25         13.2500     1.1310    -3.8570 ca         1 389      -0.126250
     26 C26         14.1500     0.3570    -4.5780 ca         1 389      -0.122500
     27 C27         14.2360    -1.0130    -4.3430 ca         1 389      -0.126250
     28 C28         13.4250    -1.6070    -3.3840 ca         1 389      -0.120250
     29 C29         11.6510    -0.7460    -0.3440 ca         1 389      -0.089300
     30 C30         10.5410    -0.0270     0.1040 ca         1 389      -0.120250
     31 C31         10.5760     0.6230     1.3290 ca         1 389      -0.126250
     32 C32         11.7060     0.5690     2.1300 ca         1 389      -0.122500
     33 C33         12.8130    -0.1510     1.6910 ca         1 389      -0.126250
     34 C34         12.7860    -0.8050     0.4640 ca         1 389      -0.120250
     35 HN1         -0.3340     0.0950    -0.9390 hn         1 389       0.462800
     36 HN1A        -0.3340    -0.8610     0.3870 hn         1 389       0.462800
     37 H2           1.8310     0.9010    -0.4950 hx         1 389       0.114700
     38 H3           1.8700    -0.9740     1.8700 hc         1 389       0.084033
     39 H3A          1.5110     0.7530     2.0060 hc         1 389       0.084033
     40 H3B          3.0890     0.2220     1.4080 hc         1 389       0.084033
     41 HN6          3.7330    -0.2320    -1.1300 hn         1 389       0.342500
     42 H7           3.3630    -3.0820    -1.8770 h1         1 389       0.097700
     43 H8           4.7020    -2.6050    -3.9590 hc         1 389       0.085700
     44 H9           2.8390    -1.9850    -5.3120 hc         1 389       0.043700
     45 H9A          2.1930    -2.8820    -3.9310 hc         1 389       0.043700
     46 H9B          2.0700    -1.1180    -3.9750 hc         1 389       0.043700
     47 H10          3.9290     0.2870    -3.6960 hc         1 389       0.043700
     48 H10A         5.4570    -0.3080    -3.0330 hc         1 389       0.043700
     49 H10B         5.1260    -0.4610    -4.7640 hc         1 389       0.043700
     50 H14          7.3690    -3.4150    -0.0630 h1         1 389       0.080700
     51 H15          7.3340    -5.7100    -0.2290 hc         1 389       0.065200
     52 H15A         8.4580    -5.4640    -1.5870 hc         1 389       0.065200
     53 H16          6.1220    -6.7250    -1.8600 hc         1 389       0.068700
     54 H16A         6.8320    -5.7270    -3.1480 hc         1 389       0.068700
     55 H17          4.5410    -5.1620    -1.3520 h1         1 389       0.053200
     56 H17A         4.8490    -4.6170    -3.0240 h1         1 389       0.053200
     57 H20          9.8290    -0.7590    -2.4130 h1         1 389       0.062700
     58 H20A        10.4500    -2.1830    -3.2380 h1         1 389       0.062700
     59 HN21         9.7340    -2.9680    -0.6150 hn         1 389       0.321500
     60 H22         12.1060    -2.4630    -1.4400 hc         1 389       0.058700
     61 H24         11.7330     1.1420    -2.3300 ha         1 389       0.134750
     62 H25         13.1830     2.1960    -4.0420 ha         1 389       0.132750
     63 H26         14.7830     0.8190    -5.3270 ha         1 389       0.135000
     64 H27         14.9370    -1.6160    -4.9080 ha         1 389       0.132750
     65 H28         13.4920    -2.6720    -3.2010 ha         1 389       0.134750
     66 H30          9.6500     0.0260    -0.5100 ha         1 389       0.134750
     67 H31          9.7090     1.1800     1.6650 ha         1 389       0.132750
     68 H32         11.7270     1.0790     3.0860 ha         1 389       0.135000
     69 H33         13.7020    -0.2020     2.3090 ha         1 389       0.132750
     70 H34         13.6540    -1.3620     0.1320 ha         1 389       0.134750
     71 H13         -0.3340     0.7430     0.5820 hn         1 389       0.462800
@<TRIPOS>BOND
     1     1     2 1   
     2     2     3 1   
     3     2     4 1   
     4     4     5 2   
     5     4     6 1   
     6     6     7 1   
     7     7     8 1   
     8     7    11 1   
     9     8     9 1   
    10     8    10 1   
    11    11    12 2   
    12    11    13 1   
    13    13    14 1   
    14    13    17 1   
    15    14    15 1   
    16    14    18 1   
    17    15    16 1   
    18    16    17 1   
    19    18    19 2   
    20    18    21 1   
    21    20    21 1   
    22    20    22 1   
    23    22    23 1   
    24    22    29 1   
    25    23    24 ar  
    26    23    28 ar  
    27    24    25 ar  
    28    25    26 ar  
    29    26    27 ar  
    30    27    28 ar  
    31    29    30 ar  
    32    29    34 ar  
    33    30    31 ar  
    34    31    32 ar  
    35    32    33 ar  
    36    33    34 ar  
    37     1    35 1   
    38     1    36 1   
    39     2    37 1   
    40     3    38 1   
    41     3    39 1   
    42     3    40 1   
    43     6    41 1   
    44     7    42 1   
    45     8    43 1   
    46     9    44 1   
    47     9    45 1   
    48     9    46 1   
    49    10    47 1   
    50    10    48 1   
    51    10    49 1   
    52    14    50 1   
    53    15    51 1   
    54    15    52 1   
    55    16    53 1   
    56    16    54 1   
    57    17    55 1   
    58    17    56 1   
    59    20    57 1   
    60    20    58 1   
    61    21    59 1   
    62    22    60 1   
    63    24    61 1   
    64    25    62 1   
    65    26    63 1   
    66    27    64 1   
    67    28    65 1   
    68    30    66 1   
    69    31    67 1   
    70    32    68 1   
    71    33    69 1   
    72    34    70 1   
    73    71     1 1   
@<TRIPOS>SUBSTRUCTURE
     1 389         1 TEMP              0 ****  ****    0 ROOT
