@<TRIPOS>MOLECULE
molecule
   33    33     1     0     0
SMALL
bcc


@<TRIPOS>ATOM
      1 CAK          0.0000     0.0000     0.0000 c3         1 38A       0.188033
      2 CAC          1.5080     0.0000     0.0000 ca         1 38A      -0.100967
      3 CAB          2.1980     0.0000     1.1970 ca         1 38A      -0.022967
      4 CAG          1.4450     0.0000     2.5020 c3         1 38A      -0.058800
      5 CAD          2.1990    -0.0060    -1.1970 ca         1 38A      -0.022967
      6 CAI          1.4460    -0.0120    -2.5020 c3         1 38A      -0.058800
      7 CAE          3.5810    -0.0060    -1.1970 ca         1 38A      -0.100967
      8 CAL          4.3350    -0.0110    -2.5010 c3         1 38A       0.188033
      9 CAF          4.2720     0.0010     0.0010 ca         1 38A      -0.022967
     10 CAH          5.7790     0.0020     0.0000 c3         1 38A      -0.058800
     11 CAA          3.5810     0.0000     1.1980 ca         1 38A      -0.100967
     12 CAJ          4.3340     0.0060     2.5030 c3         1 38A       0.188033
     13 H1          -0.3610    -0.5110    -0.8840 h1         1 38A       0.025033
     14 H2          -0.3610    -0.5110     0.8850 h1         1 38A       0.025033
     15 H4           0.5400     0.5860     2.3970 hc         1 38A       0.048811
     16 H5           1.1870    -1.0170     2.7710 hc         1 38A       0.048811
     17 H6           2.0660     0.4320     3.2780 hc         1 38A       0.048811
     18 H7           0.4730     0.4430    -2.3600 hc         1 38A       0.048811
     19 H8           2.0020     0.5490    -3.2430 hc         1 38A       0.048811
     20 H9           1.3200    -1.0330    -2.8420 hc         1 38A       0.048811
     21 H10          5.2820    -0.5210    -2.3690 h1         1 38A       0.025033
     22 H11          3.7500    -0.5260    -3.2540 h1         1 38A       0.025033
     23 H13          6.1400     0.4500     0.9180 hc         1 38A       0.048811
     24 H14          6.1410    -1.0170    -0.0710 hc         1 38A       0.048811
     25 H15          6.1390     0.5730    -0.8470 hc         1 38A       0.048811
     26 H16          5.2830    -0.5000     2.3750 h1         1 38A       0.025033
     27 H17          3.7510    -0.5050     3.2590 h1         1 38A       0.025033
     28 O1           4.5650     1.3560     2.9120 oh         1 38A      -0.599800
     29 O2           4.5720     1.3340    -2.9210 oh         1 38A      -0.599800
     30 O4          -0.4760     1.3470    -0.0000 oh         1 38A      -0.599800
     31 H3           5.0390     1.3600     3.7270 ho         1 38A       0.397000
     32 H12          5.0450     1.3300    -3.7370 ho         1 38A       0.397000
     33 H18         -1.4190     1.3470    -0.0020 ho         1 38A       0.397000
@<TRIPOS>BOND
     1    10     9 1
     2     8     7 1
     3     9     7 ar
     4     9    11 ar
     5     7     5 ar
     6    12    11 1
     7    11     3 ar
     8     5     6 1
     9     5     2 ar
    10     3     2 ar
    11     3     4 1
    12     2     1 1
    13     1    13 1
    14     1    14 1
    15     4    15 1
    16     4    16 1
    17     4    17 1
    18     6    18 1
    19     6    19 1
    20     6    20 1
    21     8    21 1
    22     8    22 1
    23    10    23 1
    24    10    24 1
    25    10    25 1
    26    12    26 1
    27    12    27 1
    28    12    28 1
    29     8    29 1
    30     1    30 1
    31    28    31 1
    32    29    32 1
    33    30    33 1
@<TRIPOS>SUBSTRUCTURE
     1 38A         1 TEMP              0 ****  ****    0 ROOT
