@<TRIPOS>MOLECULE
38A
   33    33     1     0     0
SMALL
bcc


@<TRIPOS>ATOM
      1 CAK        -0.0060   -0.0980   -0.0000 c3        1 38A      0.177700
      2 CAC         1.4880    0.0190    0.0000 ca        1 38A     -0.103300
      3 CAB         2.1860    0.0560    1.2180 ca        1 38A     -0.017300
      4 CAG         1.4450    0.1690    2.5000 c3        1 38A     -0.066800
      5 CAD         2.1870    0.0480   -1.2170 ca        1 38A     -0.017300
      6 CAI         1.4470    0.1540   -2.5010 c3        1 38A     -0.066800
      7 CAE         3.5900    0.0110   -1.2120 ca        1 38A     -0.103300
      8 CAL         4.3370   -0.1130   -2.5060 c3        1 38A      0.177700
      9 CAF         4.2950    0.0480    0.0010 ca        1 38A     -0.017300
     10 CAH         5.7760    0.1540    0.0010 c3        1 38A     -0.066800
     11 CAA         3.5890    0.0190    1.2140 ca        1 38A     -0.103300
     12 CAJ         4.3350   -0.0980    2.5090 c3        1 38A      0.177700
     13 H1         -0.3560   -0.6600    0.9100 h1        1 38A      0.024700
     14 H2         -0.3550   -0.6660   -0.9070 h1        1 38A      0.024700
     15 H4          1.2100   -0.8460    2.9070 hc        1 38A      0.051033
     16 H5          2.0490    0.7310    3.2560 hc        1 38A      0.051033
     17 H6          0.4870    0.7310    2.3540 hc        1 38A      0.051033
     18 H7          1.2120   -0.8630   -2.9020 hc        1 38A      0.051033
     19 H8          0.4890    0.7160   -2.3590 hc        1 38A      0.051033
     20 H9          2.0520    0.7110   -3.2600 hc        1 38A      0.051033
     21 H10         3.7240   -0.6800   -3.2600 h1        1 38A      0.024700
     22 H11         5.2980   -0.6790   -2.3510 h1        1 38A      0.024700
     23 H13         6.1310    0.7170    0.9020 hc        1 38A      0.051033
     24 H14         6.1320    0.7110   -0.9020 hc        1 38A      0.051033
     25 H15         6.2420   -0.8630    0.0050 hc        1 38A      0.051033
     26 H16         5.2960   -0.6650    2.3580 h1        1 38A      0.024700
     27 H17         3.7210   -0.6600    3.2660 h1        1 38A      0.024700
     28 O1          4.6200    1.2060    2.9950 oh        1 38A     -0.589800
     29 O2          4.6230    1.1880   -3.0000 oh        1 38A     -0.589800
     30 O4         -0.5700    1.2060   -0.0040 oh        1 38A     -0.589800
     31 H3          5.0980    1.0870    3.8240 ho        1 38A      0.395000
     32 H12         5.1010    1.0640   -3.8280 ho        1 38A      0.395000
     33 H18        -1.5270    1.0860   -0.0040 ho        1 38A      0.395000
@<TRIPOS>BOND
     1    1    2 1   
     2    1   13 1   
     3    1   14 1   
     4    1   30 1   
     5    2    3 ar  
     6    2    5 ar  
     7    3    4 1   
     8    3   11 ar  
     9    4   15 1   
    10    4   16 1   
    11    4   17 1   
    12    5    6 1   
    13    5    7 ar  
    14    6   18 1   
    15    6   19 1   
    16    6   20 1   
    17    7    8 1   
    18    7    9 ar  
    19    8   21 1   
    20    8   22 1   
    21    8   29 1   
    22    9   10 1   
    23    9   11 ar  
    24   10   23 1   
    25   10   24 1   
    26   10   25 1   
    27   11   12 1   
    28   12   26 1   
    29   12   27 1   
    30   12   28 1   
    31   28   31 1   
    32   29   32 1   
    33   30   33 1   
@<TRIPOS>SUBSTRUCTURE
     1 38A         1 TEMP              0 ****  ****    0 ROOT
