@<TRIPOS>MOLECULE
38B
   30    32     1     0     0
SMALL
bcc


@<TRIPOS>ATOM
      1 CAA        -0.0280    0.0420    0.0140 c3        1 38B     -0.149400
      2 CAB         1.4820    0.0250    0.0510 cc        1 38B      0.517900
      3 NAC         2.0950   -0.0410    1.2430 nd        1 38B     -0.675700
      4 NAF         2.1370    0.0810   -1.1780 n         1 38B     -0.490400
      5 CAG         3.5580    0.0750   -1.3010 c         1 38B      0.747100
      6 OAK         4.0380    0.1660   -2.4410 o         1 38B     -0.611500
      7 CAH         4.2440   -0.0200   -0.0340 cc        1 38B     -0.446200
      8 CAD         3.4680   -0.0620    1.1530 cd        1 38B      0.511700
      9 OAE         4.3500   -0.1390    2.2420 os        1 38B     -0.076100
     10 NAJ         5.5980   -0.1530    1.7890 nd        1 38B     -0.348300
     11 CAI         5.6220   -0.0970    0.4380 cc        1 38B      0.473800
     12 CAL         6.8180   -0.0930   -0.3880 ca        1 38B     -0.179500
     13 CAM         6.8910    0.7780   -1.4830 ca        1 38B     -0.052000
     14 CAN         8.0350    0.8390   -2.2740 ca        1 38B     -0.171000
     15 CAQ         9.1250    0.0190   -1.9870 ca        1 38B     -0.075000
     16 CAP         9.0730   -0.8740   -0.9200 ca        1 38B     -0.217000
     17 CAO         7.9210   -0.9390   -0.1220 ca        1 38B      0.165100
     18 OAR         7.7690   -1.8290    0.9190 os        1 38B     -0.311900
     19 CAS         8.9210   -2.5830    1.2840 c3        1 38B      0.113700
     20 H1         -0.3820    0.9810   -0.4810 hc        1 38B      0.076367
     21 H2         -0.3990   -0.8420   -0.5610 hc        1 38B      0.076367
     22 H3         -0.4540    0.0010    1.0470 hc        1 38B      0.076367
     23 H4          1.5990    0.1310   -2.0150 hn        1 38B      0.339500
     24 H5          6.0180    1.4060   -1.7270 ha        1 38B      0.152000
     25 H6          8.0730    1.5320   -3.1270 ha        1 38B      0.139000
     26 H7         10.0320    0.0700   -2.6080 ha        1 38B      0.134000
     27 H8          9.9350   -1.5230   -0.7130 ha        1 38B      0.140000
     28 H9          9.7710   -1.9090    1.5470 h1        1 38B      0.046700
     29 H10         8.5760   -3.1540    2.1840 h1        1 38B      0.046700
     30 H11         9.2100   -3.2800    0.4610 h1        1 38B      0.046700
@<TRIPOS>BOND
     1    1    2 1   
     2    1   20 1   
     3    1   21 1   
     4    1   22 1   
     5    2    3 2   
     6    2    4 1   
     7    3    8 1   
     8    4    5 1   
     9    4   23 1   
    10    5    6 2   
    11    5    7 1   
    12    7    8 2   
    13    7   11 1   
    14    8    9 1   
    15    9   10 1   
    16   10   11 2   
    17   11   12 1   
    18   12   13 ar  
    19   12   17 ar  
    20   13   14 ar  
    21   13   24 1   
    22   14   15 ar  
    23   14   25 1   
    24   15   16 ar  
    25   15   26 1   
    26   16   17 ar  
    27   16   27 1   
    28   17   18 1   
    29   18   19 1   
    30   19   28 1   
    31   19   29 1   
    32   19   30 1   
@<TRIPOS>SUBSTRUCTURE
     1 38B         1 TEMP              0 ****  ****    0 ROOT
