@<TRIPOS>MOLECULE
38C
   40    42     1     0     0
SMALL
bcc


@<TRIPOS>ATOM
      1 FAJ          0.0000     0.0000     0.0000 f          1 38C      -0.216633
      2 CAI          1.3990     0.0000     0.0000 c3         1 38C       0.634200
      3 FAK          1.8660     0.0000     1.3190 f          1 38C      -0.216633
      4 FAL          1.8660    -1.1430    -0.6580 f          1 38C      -0.216633
      5 CAH          1.9020     1.2290    -0.7110 ca         1 38C      -0.202300
      6 CAG          2.7020     2.1350    -0.0180 ca         1 38C      -0.134000
      7 CAF          3.1830     3.2610    -0.6100 ca         1 38C      -0.096300
      8 CAM          1.5680     1.4240    -2.0160 ca         1 38C      -0.109300
      9 CAN          2.0330     2.5680    -2.6860 ca         1 38C       0.316300
     10 CAE          2.8700     3.5240    -1.9560 ca         1 38C       0.200300
     11 NAD          3.3160     4.6120    -2.5810 nb         1 38C      -0.458000
     12 NAO          1.7310     2.8040    -3.9670 nb         1 38C      -0.713000
     13 CAP          2.1920     3.8940    -4.5530 ca         1 38C       0.454900
     14 CAC          2.9940     4.8170    -3.8460 ca         1 38C       0.210500
     15 CAB          3.4920     6.0270    -4.5360 c          1 38C       0.876100
     16 OBA          4.3500     6.8550    -3.9100 o          1 38C      -0.851300
     17 OAA          3.1270     6.2730    -5.6680 o          1 38C      -0.851300
     18 NAQ          1.8790     4.1380    -5.8780 nu         1 38C      -0.537900
     19 CAR          1.1470     3.1340    -6.6540 c3         1 38C       0.225100
     20 CAS          0.9360     3.6410    -8.0570 ca         1 38C      -0.136300
     21 CAZ          1.8760     3.3750    -9.0350 ca         1 38C      -0.038000
     22 CAY          1.6850     3.8390   -10.3230 ca         1 38C      -0.180500
     23 CAV          0.5480     4.5720   -10.6330 ca         1 38C       0.143100
     24 OAW          0.3590     5.0290   -11.8990 os         1 38C      -0.313900
     25 CAX         -0.8340     5.7780   -12.1470 c3         1 38C       0.244700
     26 CAU         -0.3930     4.8370    -9.6500 ca         1 38C      -0.180500
     27 CAT         -0.2000     4.3660    -8.3660 ca         1 38C      -0.038000
     28 H1           2.9480     1.9370     1.0190 ha         1 38C       0.109000
     29 H2           3.8040     3.9500    -0.0500 ha         1 38C       0.115000
     30 H3           1.0590     0.6430    -2.5680 ha         1 38C       0.115000
     31 H5           0.1860     2.9490    -6.1890 h1         1 38C       0.015700
     32 H6           2.7630     2.8030    -8.7920 ha         1 38C       0.107500
     33 H7           2.4210     3.6310   -11.0900 ha         1 38C       0.112000
     34 H8          -1.6980     5.1630   -11.9280 h1         1 38C      -0.005967
     35 H9          -0.8470     6.6570   -11.5140 h1         1 38C      -0.005967
     36 H10         -0.8610     6.0810   -13.1870 h1         1 38C      -0.005967
     37 H11         -1.2820     5.4080    -9.8900 ha         1 38C       0.112000
     38 H12         -0.9360     4.5740    -7.5980 ha         1 38C       0.107500
     39 H13          2.1180     5.0160    -6.2950 hn         1 38C       0.394800
     40 H14          1.7170     2.2140    -6.6840 h1         1 38C       0.015700
@<TRIPOS>BOND
     1     1     2 1   
     2     2     3 1   
     3     2     4 1   
     4     2     5 1   
     5     5     6 ar  
     6     5     8 ar  
     7     6     7 ar  
     8     6    28 1   
     9     7    10 ar  
    10     7    29 1   
    11     8     9 ar  
    12     8    30 1   
    13     9    10 ar  
    14     9    12 ar  
    15    10    11 ar  
    16    11    14 ar  
    17    12    13 ar  
    18    13    14 ar  
    19    13    18 1   
    20    14    15 1   
    21    15    16 1   
    22    15    17 1   
    23    18    19 1   
    24    18    39 1   
    25    19    20 1   
    26    19    31 1   
    27    19    40 1   
    28    20    21 ar  
    29    20    27 ar  
    30    21    22 ar  
    31    21    32 1   
    32    22    23 ar  
    33    22    33 1   
    34    23    24 1   
    35    23    26 ar  
    36    24    25 1   
    37    25    34 1   
    38    25    35 1   
    39    25    36 1   
    40    26    27 ar  
    41    26    37 1   
    42    27    38 1   
@<TRIPOS>SUBSTRUCTURE
     1 38C         1 TEMP              0 ****  ****    0 ROOT
