@<TRIPOS>MOLECULE
molecule
   40    42     1     0     0
SMALL
bcc


@<TRIPOS>ATOM
      1 FAJ          0.0000     0.0000     0.0000 f          1 38C      -0.233300
      2 CAI          1.3990     0.0000     0.0000 c3         1 38C       0.669200
      3 FAK          1.8660     0.0000     1.3190 f          1 38C      -0.233300
      4 FAL          1.8660    -1.1430    -0.6580 f          1 38C      -0.233300
      5 CAH          1.9020     1.2290    -0.7110 ca         1 38C      -0.173300
      6 CAG          2.7020     2.1350    -0.0180 ca         1 38C      -0.153000
      7 CAF          3.1830     3.2610    -0.6100 ca         1 38C      -0.126300
      8 CAM          1.5680     1.4240    -2.0160 ca         1 38C      -0.136300
      9 CAN          2.0330     2.5680    -2.6860 ca         1 38C       0.340300
     10 CAE          2.8700     3.5240    -1.9560 ca         1 38C       0.249300
     11 NAD          3.3160     4.6120    -2.5810 nb         1 38C      -0.583000
     12 NAO          1.7310     2.8040    -3.9670 nb         1 38C      -0.789000
     13 CAP          2.1920     3.8940    -4.5530 ca         1 38C       0.609900
     14 CAC          2.9940     4.8170    -3.8460 ca         1 38C       0.276500
     15 CAB          3.4920     6.0270    -4.5360 c          1 38C       0.789100
     16 OBA          4.3500     6.8550    -3.9100 o          1 38C      -0.801800
     17 OAA          3.1270     6.2730    -5.6680 o          1 38C      -0.801800
     18 NAQ          1.8790     4.1380    -5.8780 nu         1 38C      -0.894900
     19 CAR          1.1470     3.1340    -6.6540 c3         1 38C       0.280100
     20 CAS          0.9360     3.6410    -8.0570 ca         1 38C      -0.129300
     21 CAZ          1.8760     3.3750    -9.0350 ca         1 38C      -0.071000
     22 CAY          1.6850     3.8390   -10.3230 ca         1 38C      -0.194000
     23 CAV          0.5480     4.5720   -10.6330 ca         1 38C       0.134100
     24 OAW          0.3590     5.0290   -11.8990 os         1 38C      -0.335900
     25 CAX         -0.8340     5.7780   -12.1470 c3         1 38C       0.130700
     26 CAU         -0.3930     4.8370    -9.6500 ca         1 38C      -0.194000
     27 CAT         -0.2000     4.3660    -8.3660 ca         1 38C      -0.071000
     28 H1           2.9480     1.9370     1.0190 ha         1 38C       0.132000
     29 H2           3.8040     3.9500    -0.0500 ha         1 38C       0.148000
     30 H3           1.0590     0.6430    -2.5680 ha         1 38C       0.144000
     31 H5           0.1860     2.9490    -6.1890 h1         1 38C       0.043200
     32 H6           2.7630     2.8030    -8.7920 ha         1 38C       0.138000
     33 H7           2.4210     3.6310   -11.0900 ha         1 38C       0.132000
     34 H8          -1.6980     5.1630   -11.9280 h1         1 38C       0.037033
     35 H9          -0.8470     6.6570   -11.5140 h1         1 38C       0.037033
     36 H10         -0.8610     6.0810   -13.1870 h1         1 38C       0.037033
     37 H11         -1.2820     5.4080    -9.8900 ha         1 38C       0.132000
     38 H12         -0.9360     4.5740    -7.5980 ha         1 38C       0.138000
     39 H13          2.1180     5.0160    -6.2950 hn         1 38C       0.514800
     40 H14          1.7170     2.2140    -6.6840 h1         1 38C       0.043200
@<TRIPOS>BOND
     1    25    24 1   
     2    17    15 1   
     3    16    15 1   
     4    15    14 1   
     5    24    23 1   
     6    26    23 ar  
     7    26    27 ar  
     8    23    22 ar  
     9    27    20 ar  
    10    14    11 ar  
    11    14    13 ar  
    12    11    10 ar  
    13    22    21 ar  
    14    20    21 ar  
    15    20    19 1   
    16    18    13 1   
    17    18    19 1   
    18    13    12 ar  
    19    10     7 ar  
    20    10     9 ar  
    21     7     6 ar  
    22    12     9 ar  
    23     9     8 ar  
    24     6     5 ar  
    25     8     5 ar  
    26     5     2 1   
    27     4     2 1   
    28     2     3 1   
    29     2     1 1   
    30     6    28 1   
    31     7    29 1   
    32     8    30 1   
    33    19    31 1   
    34    21    32 1   
    35    22    33 1   
    36    25    34 1   
    37    25    35 1   
    38    25    36 1   
    39    26    37 1   
    40    27    38 1   
    41    18    39 1   
    42    19    40 1   
@<TRIPOS>SUBSTRUCTURE
     1 38C         1 TEMP              0 ****  ****    0 ROOT
