@<TRIPOS>MOLECULE
38D
   31    33     1     0     0
SMALL
bcc


@<TRIPOS>ATOM
      1 N12          0.0000     0.0000     0.0000 n2         1 38D       0.019000
      2 C13          1.2990     0.0000     0.0000 c2         1 38D      -0.465000
      3 C15          3.4330    -0.0020    -1.2800 c2         1 38D      -0.006000
      4 C17          3.4210    -0.0080    -3.6760 c2         1 38D      -0.079000
      5 C20          1.3400    -0.0010    -2.4890 c2         1 38D      -0.140000
      6 C01         -4.1840     0.0130     2.4920 ca         1 38D      -0.065000
      7 C02         -4.8700     0.0130     3.6910 ca         1 38D       0.044000
      8 O03         -6.2300     0.0190     3.6960 oh         1 38D      -0.239000
      9 C04         -4.1680     0.0080     4.8950 ca         1 38D       0.083000
     10 C05         -2.7810     0.0020     4.8940 ca         1 38D      -0.141000
     11 C06         -2.0900     0.0010     3.7010 ca         1 38D      -0.078000
     12 O07         -4.8440     0.0090     6.0730 oh         1 38D      -0.243000
     13 C08         -2.7870     0.0010     2.4900 ca         1 38D      -0.144000
     14 O10         -2.6560     0.0000     0.1600 o          1 38D      -0.359000
     15 N11         -0.7010     0.0000     1.2130 ns         1 38D       0.102000
     16 C14          2.0350    -0.0010    -1.2760 c3         1 38D      -0.120000
     17 C16          4.1160    -0.0030    -2.4770 c2         1 38D      -0.124000
     18 C19          2.0370    -0.0130    -3.6800 c2         1 38D      -0.112000
     19 Cl2         -0.3960    -0.0080    -2.4960 cl         1 38D       0.155000
     20 H1           1.4450     0.8750    -0.6220 DU         1 38D       0.320000
     21 H2           3.9780     0.0020    -0.3440 ha         1 38D       0.126000
     22 H3          -4.7280     0.0130     1.5550 ha         1 38D       0.138000
     23 H4          -6.5420     0.8670     3.4260 ho         1 38D       0.207000
     24 H5          -2.2390     0.0000     5.8330 ha         1 38D       0.119000
     25 H6          -1.0070    -0.0060     3.7030 ha         1 38D       0.107000
     26 H7          -4.8030    -0.8500     6.4600 ho         1 38D       0.209000
     27 H8          -0.2000    -0.0070     2.0790 hn         1 38D       0.091000
     28 H9           5.1990    -0.0040    -2.4810 ha         1 38D       0.122000
     29 H10          1.5000    -0.0150    -4.6210 ha         1 38D       0.130000
     30 Cl1          4.2910    -0.0100    -5.1780 cl         1 38D       0.072000
     31 C09         -2.0480    -0.0000     1.2130 c2         1 38D       0.272000
@<TRIPOS>BOND
     1     1     2 1   
     2     1    15 1   
     3     2    16 1   
     4     2    20 1   
     5     3    16 1   
     6     3    17 1   
     7     3    21 1   
     8     4    17 1   
     9     4    18 1   
    10     4    30 1   
    11     5    16 1   
    12     5    18 1   
    13     5    19 1   
    14     6     7 1   
    15     6    13 1   
    16     6    22 1   
    17     7     8 1   
    18     7     9 1   
    19     8    23 1   
    20     9    10 1   
    21     9    12 1   
    22    10    11 1   
    23    10    24 1   
    24    11    13 1   
    25    11    25 1   
    26    12    26 1   
    27    13    31 1   
    28    14    31 1   
    29    15    27 1   
    30    15    31 1   
    31    16    20 1   
    32    17    28 1   
    33    18    29 1   
@<TRIPOS>SUBSTRUCTURE
     1 38D         1 TEMP              0 ****  ****    0 ROOT
