@<TRIPOS>MOLECULE
molecule
   31    32     1     0     0
SMALL
bcc


@<TRIPOS>ATOM
      1 N12          0.0000     0.0000     0.0000 n2         1 38D      -0.380300
      2 C13          1.2990     0.0000     0.0000 ce         1 38D       0.370800
      3 C15          3.4330    -0.0020    -1.2800 ca         1 38D      -0.095000
      4 C17          3.4210    -0.0080    -3.6760 ca         1 38D       0.045400
      5 C20          1.3400    -0.0010    -2.4890 ca         1 38D       0.055400
      6 C01         -4.1840     0.0130     2.4920 ca         1 38D      -0.091000
      7 C02         -4.8700     0.0130     3.6910 ca         1 38D       0.084100
      8 O03         -6.2300     0.0190     3.6960 oh         1 38D      -0.505100
      9 C04         -4.1680     0.0080     4.8950 ca         1 38D       0.116100
     10 C05         -2.7810     0.0020     4.8940 ca         1 38D      -0.162000
     11 C06         -2.0900     0.0010     3.7010 ca         1 38D      -0.104000
     12 O07         -4.8440     0.0090     6.0730 oh         1 38D      -0.508100
     13 C08         -2.7870     0.0010     2.4900 ca         1 38D      -0.143600
     14 O10         -2.6560     0.0000     0.1600 o          1 38D      -0.557100
     15 N11         -0.7010     0.0000     1.2130 ns         1 38D      -0.354900
     16 C14          2.0350    -0.0010    -1.2760 ca         1 38D      -0.120900
     17 C16          4.1160    -0.0030    -2.4770 ca         1 38D      -0.129000
     18 C19          2.0370    -0.0130    -3.6800 ca         1 38D      -0.124000
     19 Cl2         -0.3960    -0.0080    -2.4960 cl         1 38D      -0.031400
     20 H1           1.8400     0.0000     0.9380 h4         1 38D      -0.010200
     21 H2           3.9780     0.0020    -0.3440 ha         1 38D       0.142000
     22 H3          -4.7280     0.0130     1.5550 ha         1 38D       0.172000
     23 H4          -6.5420     0.8670     3.4260 ho         1 38D       0.427000
     24 H5          -2.2390     0.0000     5.8330 ha         1 38D       0.146000
     25 H6          -1.0070    -0.0060     3.7030 ha         1 38D       0.127000
     26 H7          -4.8030    -0.8500     6.4600 ho         1 38D       0.428000
     27 H8          -0.2000     0.0000     2.0790 hn         1 38D       0.297500
     28 H9           5.1990    -0.0040    -2.4810 ha         1 38D       0.149000
     29 H10          1.5000    -0.0150    -4.6210 ha         1 38D       0.161000
     30 Cl1          4.2910    -0.0100    -5.1780 cl         1 38D      -0.095400
     31 C09         -2.0480    -0.0000     1.2130 c          1 38D       0.692700
@<TRIPOS>BOND
     1    12     9 1   
     2    10     9 ar  
     3    10    11 ar  
     4     9     7 ar  
     5    11    13 ar  
     6     7     8 1   
     7     7     6 ar  
     8    13     6 ar  
     9    13    31 1   
    10    31    14 2   
    11    31    15 1   
    12    15     1 1   
    13     1     2 2   
    14     2    16 1   
    15    19     5 1   
    16    16     5 ar  
    17    16     3 ar  
    18     5    18 ar  
    19     3    17 ar  
    20    18     4 ar  
    21    17     4 ar  
    22     4    30 1   
    23     2    20 1   
    24     3    21 1   
    25     6    22 1   
    26     8    23 1   
    27    10    24 1   
    28    11    25 1   
    29    12    26 1   
    30    15    27 1   
    31    17    28 1   
    32    18    29 1   
@<TRIPOS>SUBSTRUCTURE
     1 38D         1 TEMP              0 ****  ****    0 ROOT
