@<TRIPOS>MOLECULE
molecule
   28    29     1     0     0
SMALL
bcc


@<TRIPOS>ATOM
      1 F1           0.0000     0.0000     0.0000 f          1 38E      -0.126400
      2 C2           1.3510     0.0000     0.0000 ca         1 38E       0.121400
      3 C1           2.0460     0.0000     1.2060 ca         1 38E       0.042100
      4 O1           1.3640     0.0000     2.3800 oh         1 38E      -0.497100
      5 C3           2.0390    -0.0060    -1.1950 ca         1 38E      -0.148500
      6 C4           3.4410    -0.0070    -1.1940 ca         1 38E      -0.046800
      7 C5           4.1360    -0.0020     0.0240 ca         1 38E      -0.148500
      8 C            3.4380    -0.0010     1.2120 ca         1 38E       0.121400
      9 F            4.1070     0.0040     2.3870 f          1 38E      -0.126400
     10 C6           4.1760    -0.0140    -2.4600 ce         1 38E       0.020800
     11 C7           3.4970    -0.1450    -3.6520 cd         1 38E      -0.009600
     12 C9           4.0790    -0.2820    -4.9970 c          1 38E       0.673700
     13 O            5.2600    -0.3060    -5.2930 o          1 38E      -0.588500
     14 N1           3.0220    -0.3790    -5.8340 n          1 38E      -0.416300
     15 C10          3.0910    -0.5330    -7.2890 c3         1 38E       0.103300
     16 C8           1.8770    -0.3090    -5.0910 cc         1 38E       0.466900
     17 N            2.1410    -0.1790    -3.8280 nd         1 38E      -0.644300
     18 C11          0.4850    -0.3810    -5.6650 c3         1 38E      -0.112400
     19 H1           1.2050     0.8890     2.6520 ho         1 38E       0.425000
     20 H2           1.4970    -0.0100    -2.1330 ha         1 38E       0.183500
     21 H3           5.2190    -0.0030     0.0310 ha         1 38E       0.183500
     22 H4           5.2600    -0.0060    -2.4540 ha         1 38E       0.160000
     23 H5           4.1290    -0.5640    -7.6000 h1         1 38E       0.054033
     24 H6           2.5970     0.3050    -7.7640 h1         1 38E       0.054033
     25 H7           2.6000    -1.4540    -7.5780 h1         1 38E       0.054033
     26 H8           0.3480    -1.3330    -6.1630 hc         1 38E       0.066367
     27 H9           0.3480     0.4220    -6.3790 hc         1 38E       0.066367
     28 H10         -0.2400    -0.2820    -4.8670 hc         1 38E       0.066367
@<TRIPOS>BOND
     1    13    12 2
     2     9     8 1
     3     7     8 ar
     4     7     6 ar
     5    10     6 1
     6    10    11 2
     7    12    11 1
     8    12    14 1
     9     8     3 ar
    10     6     5 ar
    11    11    17 1
    12    15    14 1
    13    14    16 1
    14     3     4 1
    15     3     2 ar
    16     5     2 ar
    17    17    16 2
    18    16    18 1
    19     2     1 1
    20     4    19 1
    21     5    20 1
    22     7    21 1
    23    10    22 1
    24    15    23 1
    25    15    24 1
    26    15    25 1
    27    18    26 1
    28    18    27 1
    29    18    28 1
@<TRIPOS>SUBSTRUCTURE
     1 38E         1 TEMP              0 ****  ****    0 ROOT
