@<TRIPOS>MOLECULE
molecule
   48    50     1     0     0
SMALL
bcc


@<TRIPOS>ATOM
      1 CAO          0.0000     0.0000     0.0000 c3         1 38F      -0.032100
      2 CAP          1.5130     0.0000     0.0000 ca         1 38F      -0.091800
      3 CAS          2.4110     0.0000     1.0540 ca         1 38F      -0.114000
      4 CAT          3.7710    -0.0010     0.8090 ca         1 38F      -0.128000
      5 CAU          4.2380    -0.0020    -0.4910 ca         1 38F      -0.128000
      6 CAV          3.3430    -0.0020    -1.5450 ca         1 38F      -0.114000
      7 CAQ          1.9810    -0.0020    -1.3010 ca         1 38F      -0.091800
      8 CAR          0.8120    -0.0020    -2.2640 c3         1 38F      -0.032100
      9 CAN         -0.4040    -0.4410    -1.4230 c3         1 38F       0.160500
     10 NAM         -1.6210     0.2570    -1.8590 n7         1 38F      -0.800200
     11 CAL         -2.8220    -0.5210    -1.5290 c3         1 38F       0.151800
     12 CAI         -4.0660     0.2370    -1.9990 c3         1 38F       0.152100
     13 OAH         -4.1250     1.5060    -1.3450 oh         1 38F      -0.581800
     14 CAJ         -5.3170    -0.5740    -1.6540 c3         1 38F       0.120400
     15 OAK         -6.4690     0.0770    -2.1940 os         1 38F      -0.330900
     16 CAF         -7.6710    -0.5180    -1.9770 ca         1 38F       0.142100
     17 CAG         -8.8320     0.0590    -2.4740 ca         1 38F      -0.155000
     18 CAB        -10.0530    -0.5480    -2.2510 ca         1 38F      -0.046300
     19 CAA        -11.3140     0.0780    -2.7890 c3         1 38F      -0.045800
     20 CAC        -10.1200    -1.7280    -1.5340 ca         1 38F      -0.121300
     21 CAW        -11.4530    -2.3840    -1.2870 c3         1 38F      -0.040800
     22 CAD         -8.9650    -2.3040    -1.0380 ca         1 38F      -0.085000
     23 CAE         -7.7410    -1.7060    -1.2620 ca         1 38F      -0.223000
     24 H1          -0.3630    -0.7220     0.7210 hc         1 38F       0.061950
     25 H2          -0.3630     1.0040     0.1860 hc         1 38F       0.061950
     26 H3           2.0460     0.0010     2.0740 ha         1 38F       0.128000
     27 H4           4.4700    -0.0000     1.6360 ha         1 38F       0.130000
     28 H5           5.3040    -0.0020    -0.6850 ha         1 38F       0.130000
     29 H6           3.7090    -0.0030    -2.5640 ha         1 38F       0.128000
     30 H7           0.6530     0.9940    -2.6610 hc         1 38F       0.061950
     31 H8           0.9880    -0.7090    -3.0660 hc         1 38F       0.061950
     32 H9          -0.5320    -1.5160    -1.4680 h1         1 38F       0.037700
     33 H10         -1.5820     0.4080    -2.8480 hn         1 38F       0.350800
     34 H12         -2.7760    -1.4830    -2.0250 h1         1 38F       0.043200
     35 H13         -2.8720    -0.6690    -0.4570 h1         1 38F       0.043200
     36 H14         -4.0150     0.3850    -3.0710 h1         1 38F       0.039700
     37 H15         -4.2660     2.1830    -1.9860 ho         1 38F       0.408000
     38 H16         -5.2320    -1.5670    -2.0770 h1         1 38F       0.045200
     39 H17         -5.4150    -0.6470    -0.5780 h1         1 38F       0.045200
     40 H18         -8.7750     0.9550    -3.0790 ha         1 38F       0.143000
     41 H19        -11.0670     0.9920    -3.3160 hc         1 38F       0.044367
     42 H20        -11.7970    -0.6120    -3.4700 hc         1 38F       0.044367
     43 H21        -11.9840     0.3040    -1.9680 hc         1 38F       0.044367
     44 H22        -12.0930    -1.7070    -0.7350 hc         1 38F       0.040367
     45 H23        -11.9180    -2.6270    -2.2350 hc         1 38F       0.040367
     46 H24        -11.3080    -3.2920    -0.7140 hc         1 38F       0.040367
     47 H25         -9.0200    -3.2300    -0.4780 ha         1 38F       0.130000
     48 H26         -6.8360    -2.1580    -0.8730 ha         1 38F       0.133000
@<TRIPOS>BOND
     1    21    20 1   
     2    20    22 ar  
     3    20    18 ar  
     4    22    23 ar  
     5    19    18 1   
     6    18    17 ar  
     7    23    16 ar  
     8    17    16 ar  
     9    16    15 1   
    10    14    15 1   
    11    14    12 1   
    12    12    13 1   
    13    12    11 1   
    14    11    10 1   
    15     8     9 1   
    16     8     7 1   
    17    10     9 1   
    18     9     1 1   
    19     6     7 ar  
    20     6     5 ar  
    21     7     2 ar  
    22     5     4 ar  
    23     1     2 1   
    24     2     3 ar  
    25     4     3 ar  
    26     1    24 1   
    27     1    25 1   
    28     3    26 1   
    29     4    27 1   
    30     5    28 1   
    31     6    29 1   
    32     8    30 1   
    33     8    31 1   
    34     9    32 1   
    35    10    33 1   
    36    11    34 1   
    37    11    35 1   
    38    12    36 1   
    39    13    37 1   
    40    14    38 1   
    41    14    39 1   
    42    17    40 1   
    43    19    41 1   
    44    19    42 1   
    45    19    43 1   
    46    21    44 1   
    47    21    45 1   
    48    21    46 1   
    49    22    47 1   
    50    23    48 1   
@<TRIPOS>SUBSTRUCTURE
     1 38F         1 TEMP              0 ****  ****    0 ROOT
