@<TRIPOS>MOLECULE
38F
   48    50     1     0     0
SMALL
bcc


@<TRIPOS>ATOM
      1 CAO          0.0000     0.0000     0.0000 c3         1 38F       0.039900
      2 CAP          1.5130     0.0000     0.0000 ca         1 38F      -0.099800
      3 CAS          2.4110     0.0000     1.0540 ca         1 38F      -0.082500
      4 CAT          3.7710    -0.0010     0.8090 ca         1 38F      -0.103000
      5 CAU          4.2380    -0.0020    -0.4910 ca         1 38F      -0.103000
      6 CAV          3.3430    -0.0020    -1.5450 ca         1 38F      -0.082500
      7 CAQ          1.9810    -0.0020    -1.3010 ca         1 38F      -0.099800
      8 CAR          0.8120    -0.0020    -2.2640 c3         1 38F       0.039900
      9 CAN         -0.4040    -0.4410    -1.4230 c3         1 38F       0.107500
     10 NAM         -1.6210     0.2570    -1.8590 n7         1 38F      -0.561200
     11 CAL         -2.8220    -0.5210    -1.5290 c3         1 38F       0.128800
     12 CAI         -4.0660     0.2370    -1.9990 c3         1 38F       0.187100
     13 OAH         -4.1250     1.5060    -1.3450 oh         1 38F      -0.565800
     14 CAJ         -5.3170    -0.5740    -1.6540 c3         1 38F       0.177400
     15 OAK         -6.4690     0.0770    -2.1940 os         1 38F      -0.304900
     16 CAF         -7.6710    -0.5180    -1.9770 ca         1 38F       0.151100
     17 CAG         -8.8320     0.0590    -2.4740 ca         1 38F      -0.140000
     18 CAB        -10.0530    -0.5480    -2.2510 ca         1 38F      -0.048300
     19 CAA        -11.3140     0.0780    -2.7890 c3         1 38F       0.060200
     20 CAC        -10.1200    -1.7280    -1.5340 ca         1 38F      -0.132300
     21 CAW        -11.4530    -2.3840    -1.2870 c3         1 38F       0.069200
     22 CAD         -8.9650    -2.3040    -1.0380 ca         1 38F      -0.051000
     23 CAE         -7.7410    -1.7060    -1.2620 ca         1 38F      -0.215000
     24 H1          -0.3630    -0.7220     0.7210 hc         1 38F       0.028450
     25 H2          -0.3630     1.0040     0.1860 hc         1 38F       0.028450
     26 H3           2.0460     0.0010     2.0740 ha         1 38F       0.101000
     27 H4           4.4700    -0.0000     1.6360 ha         1 38F       0.102000
     28 H5           5.3040    -0.0020    -0.6850 ha         1 38F       0.102000
     29 H6           3.7090    -0.0030    -2.5640 ha         1 38F       0.101000
     30 H7           0.6530     0.9940    -2.6610 hc         1 38F       0.028450
     31 H8           0.9880    -0.7090    -3.0660 hc         1 38F       0.028450
     32 H9          -0.5320    -1.5160    -1.4680 h1         1 38F       0.019700
     33 H10         -1.5820     0.4080    -2.8480 hn         1 38F       0.250800
     34 H12         -2.7760    -1.4830    -2.0250 h1         1 38F       0.016200
     35 H13         -2.8720    -0.6690    -0.4570 h1         1 38F       0.016200
     36 H14         -4.0150     0.3850    -3.0710 h1         1 38F       0.003700
     37 H15         -4.2660     2.1830    -1.9860 ho         1 38F       0.394000
     38 H16         -5.2320    -1.5670    -2.0770 h1         1 38F       0.011200
     39 H17         -5.4150    -0.6470    -0.5780 h1         1 38F       0.011200
     40 H18         -8.7750     0.9550    -3.0790 ha         1 38F       0.118000
     41 H19        -11.0670     0.9920    -3.3160 hc         1 38F       0.009367
     42 H20        -11.7970    -0.6120    -3.4700 hc         1 38F       0.009367
     43 H21        -11.9840     0.3040    -1.9680 hc         1 38F       0.009367
     44 H22        -12.0930    -1.7070    -0.7350 hc         1 38F       0.006367
     45 H23        -11.9180    -2.6270    -2.2350 hc         1 38F       0.006367
     46 H24        -11.3080    -3.2920    -0.7140 hc         1 38F       0.006367
     47 H25         -9.0200    -3.2300    -0.4780 ha         1 38F       0.103000
     48 H26         -6.8360    -2.1580    -0.8730 ha         1 38F       0.118000
@<TRIPOS>BOND
     1     1     2 1   
     2     1     9 1   
     3     1    24 1   
     4     1    25 1   
     5     2     3 ar  
     6     2     7 ar  
     7     3     4 ar  
     8     3    26 1   
     9     4     5 ar  
    10     4    27 1   
    11     5     6 ar  
    12     5    28 1   
    13     6     7 ar  
    14     6    29 1   
    15     7     8 1   
    16     8     9 1   
    17     8    30 1   
    18     8    31 1   
    19     9    10 1   
    20     9    32 1   
    21    10    11 1   
    22    10    33 1   
    23    11    12 1   
    24    11    34 1   
    25    11    35 1   
    26    12    13 1   
    27    12    14 1   
    28    12    36 1   
    29    13    37 1   
    30    14    15 1   
    31    14    38 1   
    32    14    39 1   
    33    15    16 1   
    34    16    17 ar  
    35    16    23 ar  
    36    17    18 ar  
    37    17    40 1   
    38    18    19 1   
    39    18    20 ar  
    40    19    41 1   
    41    19    42 1   
    42    19    43 1   
    43    20    21 1   
    44    20    22 ar  
    45    21    44 1   
    46    21    45 1   
    47    21    46 1   
    48    22    23 ar  
    49    22    47 1   
    50    23    48 1   
@<TRIPOS>SUBSTRUCTURE
     1 38F         1 TEMP              0 ****  ****    0 ROOT
