@<TRIPOS>MOLECULE
38G
   59    62     1     0     0
SMALL
bcc


@<TRIPOS>ATOM
      1 CBF          0.0000     0.0000     0.0000 c3         1 38G       0.237700
      2 OBE          1.4290     0.0000     0.0000 os         1 38G      -0.290900
      3 CAZ          2.0470     0.0000     1.2110 ca         1 38G       0.119100
      4 CAY          1.2940     0.0010     2.3710 ca         1 38G      -0.151000
      5 CBA          3.4380    -0.0070     1.2840 ca         1 38G       0.113100
      6 OBD          4.1770    -0.0130     0.1430 oh         1 38G      -0.481100
      7 CBB          4.0700    -0.0060     2.5190 ca         1 38G      -0.125000
      8 CBC          3.3220     0.0000     3.6790 ca         1 38G      -0.099000
      9 CAX          1.9300     0.0020     3.6120 ca         1 38G      -0.150500
     10 CAV          1.1260     0.0080     4.8590 cc         1 38G       0.527800
     11 CAU          1.7780     0.0180     6.1090 cc         1 38G      -0.287300
     12 CAT          1.0500     0.0240     7.2570 cd         1 38G       0.048000
     13 NAW         -0.1870     0.0090     4.7870 nd         1 38G      -0.635800
     14 NAS         -0.9620     0.0150     5.9510 na         1 38G       0.707200
     15 CAR         -0.3570     0.0200     7.1820 cd         1 38G      -0.307300
     16 NAQ         -1.3010     0.0230     8.1140 nc         1 38G      -0.207600
     17 CAP         -2.4980     0.0160     7.5330 cc         1 38G       0.031600
     18 CAG         -2.3160     0.0170     6.1670 cd         1 38G      -0.269300
     19 CAB         -3.3740     0.0140     5.1360 ca         1 38G      -0.002800
     20 CAA         -4.7190     0.0240     5.5120 ca         1 38G      -0.083000
     21 CAC         -3.0340     0.0090     3.7820 ca         1 38G      -0.111000
     22 CAD         -4.0270     0.0060     2.8250 ca         1 38G      -0.103000
     23 CAE         -5.3580     0.0100     3.2050 ca         1 38G      -0.061000
     24 CAF         -5.7020     0.0220     4.5450 ca         1 38G      -0.107300
     25 CAH         -7.1540     0.0310     4.9490 c3         1 38G       0.404600
     26 OAI         -7.6070     1.3810     5.0670 oh         1 38G      -0.604800
     27 NAJ         -7.9500    -0.6650     3.9280 n7         1 38G      -0.590200
     28 CAK         -9.0660    -1.3980     4.5410 c3         1 38G       0.134800
     29 CAL         -9.8700    -2.1090     3.4510 c3         1 38G       0.151800
     30 NAM        -10.9860    -2.8410     4.0640 n3         1 38G      -0.544600
     31 CAO        -11.9560    -1.9160     4.6660 c3         1 38G       0.182100
     32 CAN        -11.6380    -3.7220     3.0870 c3         1 38G       0.182100
     33 H1          -0.3610    -0.0020    -1.0210 h1         1 38G       0.000033
     34 H2          -0.3610    -0.8830     0.5120 h1         1 38G       0.000033
     35 H3          -0.3610     0.8860     0.5090 h1         1 38G       0.000033
     36 H4           0.2120     0.0020     2.3160 ha         1 38G       0.143000
     37 H5           4.6050     0.8210     0.0420 ho         1 38G       0.402000
     38 H6           5.1520    -0.0090     2.5720 ha         1 38G       0.117000
     39 H7           3.8170     0.0010     4.6420 ha         1 38G       0.113000
     40 H8           2.8600     0.0220     6.1540 ha         1 38G       0.135000
     41 H9           1.5470     0.0310     8.2200 ha         1 38G       0.123000
     42 H10         -3.4520     0.0090     8.0460 h4         1 38G       0.146000
     43 H11         -4.9900     0.0330     6.5610 ha         1 38G       0.105000
     44 H12         -1.9920     0.0060     3.4840 ha         1 38G       0.130000
     45 H13         -3.7650    -0.0000     1.7740 ha         1 38G       0.100000
     46 H14         -6.1340     0.0080     2.4490 ha         1 38G       0.113000
     47 H15         -7.2670    -0.4720     5.9010 h2         1 38G       0.009700
     48 H16         -7.6450     1.6220     5.9770 ho         1 38G       0.397000
     49 H17         -8.3070     0.0000     3.2720 hn         1 38G       0.271800
     50 H19         -9.7080    -0.7030     5.0680 h1         1 38G       0.015700
     51 H20         -8.6770    -2.1300     5.2390 h1         1 38G       0.015700
     52 H21        -10.2580    -1.3760     2.7530 h1         1 38G       0.014200
     53 H22         -9.2280    -2.8040     2.9240 h1         1 38G       0.014200
     54 H24        -12.0550    -1.0390     4.0390 h1         1 38G       0.001367
     55 H25        -11.6100    -1.6200     5.6490 h1         1 38G       0.001367
     56 H26        -12.9170    -2.4080     4.7550 h1         1 38G       0.001367
     57 H27        -12.4460    -4.2600     3.5670 h1         1 38G       0.001367
     58 H28        -12.0330    -3.1280     2.2720 h1         1 38G       0.001367
     59 H29        -10.9140    -4.4290     2.6990 h1         1 38G       0.001367
@<TRIPOS>BOND
     1     1     2 1   
     2     1    33 1   
     3     1    34 1   
     4     1    35 1   
     5     2     3 1   
     6     3     4 ar  
     7     3     5 ar  
     8     4     9 ar  
     9     4    36 1   
    10     5     6 1   
    11     5     7 ar  
    12     6    37 1   
    13     7     8 ar  
    14     7    38 1   
    15     8     9 ar  
    16     8    39 1   
    17     9    10 1   
    18    10    11 1   
    19    10    13 2   
    20    11    12 2   
    21    11    40 1   
    22    12    15 1   
    23    12    41 1   
    24    13    14 1   
    25    14    15 1   
    26    14    18 1   
    27    15    16 2   
    28    16    17 1   
    29    17    18 2   
    30    17    42 1   
    31    18    19 1   
    32    19    20 ar  
    33    19    21 ar  
    34    20    24 ar  
    35    20    43 1   
    36    21    22 ar  
    37    21    44 1   
    38    22    23 ar  
    39    22    45 1   
    40    23    24 ar  
    41    23    46 1   
    42    24    25 1   
    43    25    26 1   
    44    25    27 1   
    45    25    47 1   
    46    26    48 1   
    47    27    28 1   
    48    27    49 1   
    49    28    29 1   
    50    28    50 1   
    51    28    51 1   
    52    29    30 1   
    53    29    52 1   
    54    29    53 1   
    55    30    31 1   
    56    30    32 1   
    57    31    54 1   
    58    31    55 1   
    59    31    56 1   
    60    32    57 1   
    61    32    58 1   
    62    32    59 1   
@<TRIPOS>SUBSTRUCTURE
     1 38G         1 TEMP              0 ****  ****    0 ROOT
