@<TRIPOS>MOLECULE
molecule
   59    62     1     0     0
SMALL
bcc


@<TRIPOS>ATOM
      1 CBF          0.0000     0.0000     0.0000 c3         1 38G       0.122700
      2 OBE          1.4290     0.0000     0.0000 os         1 38G      -0.310900
      3 CAZ          2.0470     0.0000     1.2110 ca         1 38G       0.121100
      4 CAY          1.2940     0.0010     2.3710 ca         1 38G      -0.170000
      5 CBA          3.4380    -0.0070     1.2840 ca         1 38G       0.100100
      6 OBD          4.1770    -0.0130     0.1430 oh         1 38G      -0.500100
      7 CBB          4.0700    -0.0060     2.5190 ca         1 38G      -0.140000
      8 CBC          3.3220     0.0000     3.6790 ca         1 38G      -0.125000
      9 CAX          1.9300     0.0020     3.6120 ca         1 38G      -0.127500
     10 CAV          1.1260     0.0080     4.8590 cc         1 38G       0.479800
     11 CAU          1.7780     0.0180     6.1090 cd         1 38G      -0.271300
     12 CAT          1.0500     0.0240     7.2570 cc         1 38G      -0.014000
     13 NAW         -0.1870     0.0090     4.7870 nd         1 38G      -0.494800
     14 NAS         -0.9620     0.0150     5.9510 na         1 38G       0.200200
     15 CAR         -0.3570     0.0200     7.1820 cc         1 38G      -0.090300
     16 NAQ         -1.3010     0.0230     8.1140 nd         1 38G      -0.285600
     17 CAP         -2.4980     0.0160     7.5330 cd         1 38G       0.026600
     18 CAG         -2.3160     0.0170     6.1670 cc         1 38G      -0.072300
     19 CAB         -3.3740     0.0140     5.1360 ca         1 38G      -0.021800
     20 CAA         -4.7190     0.0240     5.5120 ca         1 38G      -0.107000
     21 CAC         -3.0340     0.0090     3.7820 ca         1 38G      -0.111000
     22 CAD         -4.0270     0.0060     2.8250 ca         1 38G      -0.137000
     23 CAE         -5.3580     0.0100     3.2050 ca         1 38G      -0.080000
     24 CAF         -5.7020     0.0220     4.5450 ca         1 38G      -0.090300
     25 CAH         -7.1540     0.0310     4.9490 c3         1 38G       0.416600
     26 OAI         -7.6070     1.3810     5.0670 oh         1 38G      -0.627800
     27 NAJ         -7.9500    -0.6650     3.9280 n7         1 38G      -0.813200
     28 CAK         -9.0660    -1.3980     4.5410 c3         1 38G       0.151800
     29 CAL         -9.8700    -2.1090     3.4510 c3         1 38G       0.161800
     30 NAM        -10.9860    -2.8410     4.0640 n3         1 38G      -0.732600
     31 CAO        -11.9560    -1.9160     4.6660 c3         1 38G       0.151100
     32 CAN        -11.6380    -3.7220     3.0870 c3         1 38G       0.151100
     33 H1          -0.3610    -0.0020    -1.0210 h1         1 38G       0.045033
     34 H2          -0.3610    -0.8830     0.5120 h1         1 38G       0.045033
     35 H3          -0.3610     0.8860     0.5090 h1         1 38G       0.045033
     36 H4           0.2120     0.0020     2.3160 ha         1 38G       0.160000
     37 H5           4.6050     0.8210     0.0420 ho         1 38G       0.420000
     38 H6           5.1520    -0.0090     2.5720 ha         1 38G       0.148000
     39 H7           3.8170     0.0010     4.6420 ha         1 38G       0.138000
     40 H8           2.8600     0.0220     6.1540 ha         1 38G       0.153000
     41 H9           1.5470     0.0310     8.2200 ha         1 38G       0.165000
     42 H10         -3.4520     0.0090     8.0460 h4         1 38G       0.188000
     43 H11         -4.9900     0.0330     6.5610 ha         1 38G       0.126000
     44 H12         -1.9920     0.0060     3.4840 ha         1 38G       0.152000
     45 H13         -3.7650    -0.0000     1.7740 ha         1 38G       0.128000
     46 H14         -6.1340     0.0080     2.4490 ha         1 38G       0.142000
     47 H15         -7.2670    -0.4720     5.9010 h2         1 38G       0.045700
     48 H16         -7.6450     1.6220     5.9770 ho         1 38G       0.409000
     49 H17         -8.3070     0.0000     3.2720 hn         1 38G       0.369800
     50 H19         -9.7080    -0.7030     5.0680 h1         1 38G       0.042700
     51 H20         -8.6770    -2.1300     5.2390 h1         1 38G       0.042700
     52 H21        -10.2580    -1.3760     2.7530 h1         1 38G       0.040700
     53 H22         -9.2280    -2.8040     2.9240 h1         1 38G       0.040700
     54 H24        -12.0550    -1.0390     4.0390 h1         1 38G       0.032533
     55 H25        -11.6100    -1.6200     5.6490 h1         1 38G       0.032533
     56 H26        -12.9170    -2.4080     4.7550 h1         1 38G       0.032533
     57 H27        -12.4460    -4.2600     3.5670 h1         1 38G       0.032533
     58 H28        -12.0330    -3.1280     2.2720 h1         1 38G       0.032533
     59 H29        -10.9140    -4.4290     2.6990 h1         1 38G       0.032533
@<TRIPOS>BOND
     1    12    11 2
     2    12    15 1
     3    16    15 2
     4    16    17 1
     5    11    10 1
     6    15    14 1
     7    17    18 2
     8     8     7 ar
     9     8     9 ar
    10    10     9 1
    11    10    13 2
    12    14    18 1
    13    14    13 1
    14     7     5 ar
    15    18    19 1
    16     9     4 ar
    17    19    21 ar
    18    19    20 ar
    19     5     6 1
    20     5     3 ar
    21    21    22 ar
    22     4     3 ar
    23     3     2 1
    24    20    24 ar
    25    22    23 ar
    26    24    23 ar
    27    24    25 1
    28     2     1 1
    29    25    26 1
    30    25    27 1
    31    29    30 1
    32    29    28 1
    33    27    28 1
    34    30    32 1
    35    30    31 1
    36     1    33 1
    37     1    34 1
    38     1    35 1
    39     4    36 1
    40     6    37 1
    41     7    38 1
    42     8    39 1
    43    11    40 1
    44    12    41 1
    45    17    42 1
    46    20    43 1
    47    21    44 1
    48    22    45 1
    49    23    46 1
    50    25    47 1
    51    26    48 1
    52    27    49 1
    53    28    50 1
    54    28    51 1
    55    29    52 1
    56    29    53 1
    57    31    54 1
    58    31    55 1
    59    31    56 1
    60    32    57 1
    61    32    58 1
    62    32    59 1
@<TRIPOS>SUBSTRUCTURE
     1 38G         1 TEMP              0 ****  ****    0 ROOT
