@<TRIPOS>MOLECULE
molecule
   76    83     1     0     0
SMALL
bcc


@<TRIPOS>ATOM
      1 C1           0.0000     0.0000     0.0000 ca         1 38H      -0.050100
      2 N1           0.5730     0.0010     2.2160 nc         1 38H      -0.556100
      3 O1           1.7200     0.0000     4.4090 o          1 38H      -0.482100
      4 S1           1.7630     0.0000     0.0000 ss         1 38H      -0.218100
      5 C2          -0.9170     0.0050    -1.0470 ca         1 38H      -0.096000
      6 O2          -3.1080     0.5580     9.0530 o          1 38H      -0.817300
      7 S2           1.0200    -0.7030    10.4110 ss         1 38H      -0.378300
      8 C3          -2.2680     0.0100    -0.7840 ca         1 38H      -0.132000
      9 N3           2.6150    -0.3970     8.1330 nh         1 38H      -0.678300
     10 O3          -2.2190     0.9370     7.0520 o          1 38H      -0.817300
     11 C4          -2.7190     0.0120     0.5270 ca         1 38H      -0.130000
     12 N4           0.2880     0.0940     8.1450 nc         1 38H      -0.648000
     13 O4          -4.1320    -3.0760    12.2020 os         1 38H      -0.320900
     14 C5          -1.8300     0.0070     1.5720 ca         1 38H      -0.060000
     15 N5          -8.2430    -3.9870    15.7870 na         1 38H       0.071100
     16 C6          -0.4410     0.0010     1.3270 ca         1 38H       0.155400
     17 N6          -8.3170    -3.4680    17.0840 nd         1 38H      -0.479100
     18 C7           1.7760     0.0000     1.7580 cd         1 38H       0.497800
     19 C8           2.8170     0.0010     3.8840 c          1 38H       0.647700
     20 C9           4.0370     0.0030     4.7170 ca         1 38H      -0.146600
     21 C10          5.2930     0.0030     4.1130 ca         1 38H      -0.112000
     22 C11          6.4280     0.0030     4.8980 ca         1 38H      -0.149000
     23 C12          6.3160     0.0010     6.2750 ca         1 38H      -0.109000
     24 C13          5.0690    -0.0000     6.8840 ca         1 38H      -0.080300
     25 C14          3.9290     0.0040     6.1130 ca         1 38H      -0.001300
     26 C15          2.5540     0.0140     6.7270 c3         1 38H       0.202100
     27 C16          3.6120     0.4080     8.8570 c3         1 38H       0.158800
     28 C17          5.0070    -0.0110     8.3900 c3         1 38H      -0.033100
     29 C18          1.3700    -0.3020     8.7330 cd         1 38H       0.627300
     30 C19         -0.8260     0.1220     8.8830 cc         1 38H       0.379800
     31 C20         -2.1230     0.5510     8.3400 c          1 38H       0.797100
     32 C21         -0.6710    -0.2740    10.1660 cd         1 38H      -0.110700
     33 C22         -1.7580    -0.3390    11.2080 c3         1 38H       0.011900
     34 C23         -2.4150    -1.7200    11.1750 c3         1 38H      -0.070400
     35 C24         -3.5190    -1.7850    12.2320 c3         1 38H       0.132400
     36 C25         -5.1400    -3.3010    13.0860 ca         1 38H       0.166100
     37 C26         -5.5330    -2.2980    13.9590 ca         1 38H      -0.186000
     38 C27         -6.5600    -2.5240    14.8540 ca         1 38H      -0.084000
     39 C28         -7.2000    -3.7560    14.8790 ca         1 38H      -0.037200
     40 C29         -6.8060    -4.7590    14.0040 ca         1 38H      -0.084000
     41 C30         -5.7790    -4.5320    13.1100 ca         1 38H      -0.186000
     42 C31         -9.4110    -3.8710    17.6670 cc         1 38H       0.386800
     43 C32        -10.1310    -4.7140    16.7200 ca         1 38H      -0.506500
     44 C33        -11.3310    -5.4290    16.7450 ca         1 38H       0.525200
     45 C34        -10.9220    -6.1190    14.5860 ca         1 38H       0.713900
     46 C35         -9.3430    -4.7580    15.5480 ca         1 38H       0.511800
     47 N8          -9.7800    -5.4710    14.5140 nb         1 38H      -0.750000
     48 N7         -11.6770    -6.1150    15.6720 nb         1 38H      -0.776000
     49 H1          -0.5660     0.0040    -2.0720 ha         1 38H       0.125000
     50 H2           3.8210    -0.0000     2.1050 hn         1 38H       0.331500
     51 H3          -2.9790     0.0150    -1.6020 ha         1 38H       0.126000
     52 H5          -3.7840     0.0160     0.7290 ha         1 38H       0.138000
     53 H6          -2.1970     0.0080     2.5910 ha         1 38H       0.178000
     54 H7           5.3770     0.0050     3.0330 ha         1 38H       0.115000
     55 H8           7.4070     0.0040     4.4340 ha         1 38H       0.124000
     56 H9           7.2110     0.0020     6.8850 ha         1 38H       0.126000
     57 H10          1.9160    -0.6730     6.1830 h1         1 38H       0.108700
     58 H11          2.1440     1.0150     6.6660 h1         1 38H       0.108700
     59 H12          3.4600     1.4540     8.6180 h1         1 38H       0.050700
     60 H13          3.5220     0.2100     9.9180 h1         1 38H       0.050700
     61 H14          5.7400     0.6820     8.7840 hc         1 38H       0.053700
     62 H15          5.2190    -1.0110     8.7490 hc         1 38H       0.053700
     63 H16         -1.3290    -0.1660    12.1870 hc         1 38H       0.064700
     64 H17         -2.5030     0.4200    11.0000 hc         1 38H       0.064700
     65 H18         -2.8430    -1.8940    10.1950 hc         1 38H       0.064200
     66 H19         -1.6700    -2.4790    11.3830 hc         1 38H       0.064200
     67 H20         -3.0910    -1.6110    13.2120 h1         1 38H       0.036200
     68 H21         -4.2630    -1.0260    12.0240 h1         1 38H       0.036200
     69 H22         -5.0340    -1.3370    13.9400 ha         1 38H       0.151000
     70 H23         -6.8670    -1.7400    15.5370 ha         1 38H       0.147500
     71 H24         -7.3050    -5.7210    14.0220 ha         1 38H       0.147500
     72 H25         -5.4720    -5.3150    12.4270 ha         1 38H       0.151000
     73 H26         -9.7270    -3.6240    18.6730 h4         1 38H       0.062800
     74 H27        -11.9560    -5.4320    17.6300 h4         1 38H       0.025100
     75 H28        -11.2460    -6.6970    13.7290 h5         1 38H       0.062100
     76 N2           2.9190     0.0010     2.5390 ns         1 38H      -0.462400
@<TRIPOS>BOND
     1    48    45 ar  
     2    48    44 ar  
     3     6    31 1   
     4    45    47 ar  
     5    44    43 ar  
     6    47    46 ar  
     7    31    10 1   
     8    31    30 1   
     9    43    46 ar  
    10    43    42 1   
    11    46    15 1   
    12    42    17 2   
    13    30    12 1   
    14    30    32 2   
    15    15    17 1   
    16    15    39 1   
    17    12    29 2   
    18    33    32 1   
    19    33    34 1   
    20    32     7 1   
    21    38    39 ar  
    22    38    37 ar  
    23    39    40 ar  
    24    28    27 1   
    25    28    24 1   
    26    37    36 ar  
    27    40    41 ar  
    28    29     9 1   
    29    29     7 1   
    30    27     9 1   
    31    36    41 ar  
    32    36    13 1   
    33     9    26 1   
    34    13    35 1   
    35    35    34 1   
    36    24    23 ar  
    37    24    25 ar  
    38    26    25 1   
    39    23    22 ar  
    40    25    20 ar  
    41    22    21 ar  
    42     3    19 2   
    43    20    21 ar  
    44    20    19 1   
    45    19    76 1   
    46     4    18 1   
    47     4     1 1   
    48    76    18 1   
    49    18     2 2   
    50     5     1 ar  
    51     5     8 ar  
    52     1    16 ar  
    53     8    11 ar  
    54     2    16 1   
    55    16    14 ar  
    56    11    14 ar  
    57     5    49 1   
    58    76    50 1   
    59     8    51 1   
    60    11    52 1   
    61    14    53 1   
    62    21    54 1   
    63    22    55 1   
    64    23    56 1   
    65    26    57 1   
    66    26    58 1   
    67    27    59 1   
    68    27    60 1   
    69    28    61 1   
    70    28    62 1   
    71    33    63 1   
    72    33    64 1   
    73    34    65 1   
    74    34    66 1   
    75    35    67 1   
    76    35    68 1   
    77    37    69 1   
    78    38    70 1   
    79    40    71 1   
    80    41    72 1   
    81    42    73 1   
    82    44    74 1   
    83    45    75 1   
@<TRIPOS>SUBSTRUCTURE
     1 38H         1 TEMP              0 ****  ****    0 ROOT
