@<TRIPOS>MOLECULE
38H
   76    83     1     0     0
SMALL
bcc


@<TRIPOS>ATOM
      1 C1           0.0000     0.0000     0.0000 ca         1 38H      -0.024100
      2 N1           0.5730     0.0010     2.2160 nc         1 38H      -0.410100
      3 O1           1.7200     0.0000     4.4090 o          1 38H      -0.521100
      4 S1           1.7630     0.0000     0.0000 ss         1 38H      -0.281100
      5 C2          -0.9170     0.0050    -1.0470 ca         1 38H      -0.059000
      6 O2          -3.1080     0.5580     9.0530 o          1 38H      -0.866300
      7 S2           1.0200    -0.7030    10.4110 ss         1 38H      -0.443300
      8 C3          -2.2680     0.0100    -0.7840 ca         1 38H      -0.106000
      9 N3           2.6150    -0.3970     8.1330 nh         1 38H      -0.440300
     10 O3          -2.2190     0.9370     7.0520 o          1 38H      -0.866300
     11 C4          -2.7190     0.0120     0.5270 ca         1 38H      -0.102000
     12 N4           0.2880     0.0940     8.1450 nc         1 38H      -0.507000
     13 O4          -4.1320    -3.0760    12.2020 os         1 38H      -0.296900
     14 C5          -1.8300     0.0070     1.5720 ca         1 38H      -0.029000
     15 N5          -8.2430    -3.9870    15.7870 na         1 38H       0.546100
     16 C6          -0.4410     0.0010     1.3270 ca         1 38H       0.100400
     17 N6          -8.3170    -3.4680    17.0840 nc         1 38H      -0.629100
     18 C7           1.7760     0.0000     1.7580 cd         1 38H       0.304800
     19 C8           2.8170     0.0010     3.8840 c          1 38H       0.548700
     20 C9           4.0370     0.0030     4.7170 ca         1 38H      -0.156600
     21 C10          5.2930     0.0030     4.1130 ca         1 38H      -0.094000
     22 C11          6.4280     0.0030     4.8980 ca         1 38H      -0.125000
     23 C12          6.3160     0.0010     6.2750 ca         1 38H      -0.083000
     24 C13          5.0690    -0.0000     6.8840 ca         1 38H      -0.088300
     25 C14          3.9290     0.0040     6.1130 ca         1 38H       0.009700
     26 C15          2.5540     0.0140     6.7270 c3         1 38H       0.157100
     27 C16          3.6120     0.4080     8.8570 c3         1 38H       0.126800
     28 C17          5.0070    -0.0110     8.3900 c3         1 38H       0.034900
     29 C18          1.3700    -0.3020     8.7330 cd         1 38H       0.506300
     30 C19         -0.8260     0.1220     8.8830 cc         1 38H       0.331800
     31 C20         -2.1230     0.5510     8.3400 c          1 38H       0.881100
     32 C21         -0.6710    -0.2740    10.1660 cd         1 38H      -0.079700
     33 C22         -1.7580    -0.3390    11.2080 c3         1 38H       0.065900
     34 C23         -2.4150    -1.7200    11.1750 c3         1 38H      -0.032400
     35 C24         -3.5190    -1.7850    12.2320 c3         1 38H       0.197400
     36 C25         -5.1400    -3.3010    13.0860 ca         1 38H       0.187100
     37 C26         -5.5330    -2.2980    13.9590 ca         1 38H      -0.175000
     38 C27         -6.5600    -2.5240    14.8540 ca         1 38H      -0.041500
     39 C28         -7.2000    -3.7560    14.8790 ca         1 38H      -0.227200
     40 C29         -6.8060    -4.7590    14.0040 ca         1 38H      -0.041500
     41 C30         -5.7790    -4.5320    13.1100 ca         1 38H      -0.175000
     42 C31         -9.4110    -3.8710    17.6670 cd         1 38H       0.453800
     43 C32        -10.1310    -4.7140    16.7200 ca         1 38H      -0.523500
     44 C33        -11.3310    -5.4290    16.7450 ca         1 38H       0.529200
     45 C34        -10.9220    -6.1190    14.5860 ca         1 38H       0.655900
     46 C35         -9.3430    -4.7580    15.5480 ca         1 38H       0.290800
     47 N8          -9.7800    -5.4710    14.5140 nb         1 38H      -0.623000
     48 N7         -11.6770    -6.1150    15.6720 nb         1 38H      -0.680000
     49 H1          -0.5660     0.0040    -2.0720 ha         1 38H       0.102000
     50 H2           3.8210    -0.0000     2.1050 hn         1 38H       0.174500
     51 H3          -2.9790     0.0150    -1.6020 ha         1 38H       0.100000
     52 H5          -3.7840     0.0160     0.7290 ha         1 38H       0.108000
     53 H6          -2.1970     0.0080     2.5910 ha         1 38H       0.143000
     54 H7           5.3770     0.0050     3.0330 ha         1 38H       0.095000
     55 H8           7.4070     0.0040     4.4340 ha         1 38H       0.098000
     56 H9           7.2110     0.0020     6.8850 ha         1 38H       0.099000
     57 H10          1.9160    -0.6730     6.1830 h1         1 38H       0.081700
     58 H11          2.1440     1.0150     6.6660 h1         1 38H       0.081700
     59 H12          3.4600     1.4540     8.6180 h1         1 38H       0.026700
     60 H13          3.5220     0.2100     9.9180 h1         1 38H       0.026700
     61 H14          5.7400     0.6820     8.7840 hc         1 38H       0.020700
     62 H15          5.2190    -1.0110     8.7490 hc         1 38H       0.020700
     63 H16         -1.3290    -0.1660    12.1870 hc         1 38H       0.040200
     64 H17         -2.5030     0.4200    11.0000 hc         1 38H       0.040200
     65 H18         -2.8430    -1.8940    10.1950 hc         1 38H       0.034700
     66 H19         -1.6700    -2.4790    11.3830 hc         1 38H       0.034700
     67 H20         -3.0910    -1.6110    13.2120 h1         1 38H       0.004200
     68 H21         -4.2630    -1.0260    12.0240 h1         1 38H       0.004200
     69 H22         -5.0340    -1.3370    13.9400 ha         1 38H       0.128000
     70 H23         -6.8670    -1.7400    15.5370 ha         1 38H       0.117500
     71 H24         -7.3050    -5.7210    14.0220 ha         1 38H       0.117500
     72 H25         -5.4720    -5.3150    12.4270 ha         1 38H       0.128000
     73 H26         -9.7270    -3.6240    18.6730 h4         1 38H       0.013800
     74 H27        -11.9560    -5.4320    17.6300 h4         1 38H      -0.022900
     75 H28        -11.2460    -6.6970    13.7290 h5         1 38H      -0.002900
     76 N2           2.9190     0.0010     2.5390 ns         1 38H      -0.016400
@<TRIPOS>BOND
     1     1     4 1   
     2     1     5 ar  
     3     1    16 ar  
     4     2    16 1   
     5     2    18 2   
     6     3    19 2   
     7     4    18 1   
     8     5     8 ar  
     9     5    49 1   
    10     6    31 1   
    11     7    29 1   
    12     7    32 1   
    13     8    11 ar  
    14     8    51 1   
    15     9    26 1   
    16     9    27 1   
    17     9    29 1   
    18    10    31 1   
    19    11    14 ar  
    20    11    52 1   
    21    12    29 2   
    22    12    30 1   
    23    13    35 1   
    24    13    36 1   
    25    14    16 ar  
    26    14    53 1   
    27    15    17 1   
    28    15    39 1   
    29    15    46 1   
    30    17    42 2   
    31    18    76 1   
    32    19    20 1   
    33    19    76 1   
    34    20    21 ar  
    35    20    25 ar  
    36    21    22 ar  
    37    21    54 1   
    38    22    23 ar  
    39    22    55 1   
    40    23    24 ar  
    41    23    56 1   
    42    24    25 ar  
    43    24    28 1   
    44    25    26 1   
    45    26    57 1   
    46    26    58 1   
    47    27    28 1   
    48    27    59 1   
    49    27    60 1   
    50    28    61 1   
    51    28    62 1   
    52    30    31 1   
    53    30    32 2   
    54    32    33 1   
    55    33    34 1   
    56    33    63 1   
    57    33    64 1   
    58    34    35 1   
    59    34    65 1   
    60    34    66 1   
    61    35    67 1   
    62    35    68 1   
    63    36    37 ar  
    64    36    41 ar  
    65    37    38 ar  
    66    37    69 1   
    67    38    39 ar  
    68    38    70 1   
    69    39    40 ar  
    70    40    41 ar  
    71    40    71 1   
    72    41    72 1   
    73    42    43 1   
    74    42    73 1   
    75    43    44 ar  
    76    43    46 ar  
    77    44    48 ar  
    78    44    74 1   
    79    45    47 ar  
    80    45    48 ar  
    81    45    75 1   
    82    46    47 ar  
    83    50    76 1   
@<TRIPOS>SUBSTRUCTURE
     1 38H         1 TEMP              0 ****  ****    0 ROOT
