@<TRIPOS>MOLECULE
38K
   53    56     1     0     0
SMALL
bcc


@<TRIPOS>ATOM
      1 O30          0.0000     0.0000     0.0000 o          1 38K      -0.511800
      2 S28          1.4210     0.0000     0.0000 sy         1 38K       0.960200
      3 O29          2.1980     0.0000     1.1880 o          1 38K      -0.511800
      4 N31          1.8880    -1.3330    -0.8650 nz         1 38K      -0.152500
      5 C10          1.9170     1.4180    -0.9200 ca         1 38K      -0.380800
      6 C9           3.2410     1.8320    -0.9010 ca         1 38K       0.255600
      7 N8           4.1940     1.1440    -0.1650 nu         1 38K      -0.376000
      8 C4           4.9230     0.1100    -0.7590 ca         1 38K      -0.059400
      9 C3           4.9410    -1.1490    -0.1760 ca         1 38K      -0.175000
     10 C5           5.6230     0.3390    -1.9370 ca         1 38K      -0.172000
     11 C6           6.3400    -0.6820    -2.5320 ca         1 38K      -0.100000
     12 C7           6.3650    -1.9380    -1.9600 ca         1 38K      -0.056000
     13 C2           5.6700    -2.1780    -0.7730 ca         1 38K      -0.080600
     14 C1           5.6950    -3.5210    -0.1580 c          1 38K       0.954200
     15 O47          6.3900    -4.5160    -0.7420 o          1 38K      -0.857800
     16 O49          5.0890    -3.7280     0.8750 o          1 38K      -0.857800
     17 C11          0.9870     2.1240    -1.6710 ca         1 38K       0.492200
     18 N12          1.3210     3.1840    -2.3680 nb         1 38K      -0.568000
     19 C13          2.5780     3.6430    -2.3920 ca         1 38K       0.435600
     20 C14          3.5890     2.9760    -1.6570 ca         1 38K      -0.206300
     21 C18          2.9160     4.7790    -3.1440 ca         1 38K      -0.171300
     22 C17          4.2240     5.2280    -3.1540 cp         1 38K       0.065000
     23 C16          5.2150     4.5570    -2.4200 ca         1 38K      -0.081000
     24 C15          4.9060     3.4580    -1.6810 ca         1 38K      -0.057000
     25 C19          4.5850     6.4240    -3.9520 cp         1 38K      -0.392600
     26 C20          5.3230     7.4750    -3.3830 ca         1 38K       0.709600
     27 O24          5.7210     7.4170    -2.0890 os         1 38K      -0.423100
     28 C25          6.4660     8.5270    -1.5890 c3         1 38K       0.252700
     29 N25          5.6240     8.5260    -4.1330 nb         1 38K      -0.716000
     30 C21          5.2380     8.5890    -5.3970 ca         1 38K       0.886300
     31 O26          5.5590     9.6820    -6.1290 os         1 38K      -0.406100
     32 C27          5.1160     9.7080    -7.4880 c3         1 38K       0.258700
     33 N22          4.5420     7.6180    -5.9670 nb         1 38K      -0.737000
     34 C23          4.2060     6.5320    -5.2890 ca         1 38K       0.536200
     35 H1           2.5280    -1.0560    -1.5840 hn         1 38K       0.328467
     36 H2           2.3350    -1.9870    -0.2540 hn         1 38K       0.328467
     37 H3           4.3650     1.3920     0.7890 hn         1 38K       0.340800
     38 H4           4.4000    -1.3290     0.7450 ha         1 38K       0.138000
     39 H5           5.6070     1.3230    -2.3910 ha         1 38K       0.110000
     40 H6           6.8820    -0.4970    -3.4510 ha         1 38K       0.103000
     41 H7           6.9300    -2.7350    -2.4270 ha         1 38K       0.147000
     42 H9          -0.0430     1.7910    -1.6810 h4         1 38K       0.000100
     43 H10          2.1560     5.3010    -3.7130 ha         1 38K       0.133000
     44 H11          6.2350     4.9210    -2.4380 ha         1 38K       0.126000
     45 H12          5.6790     2.9480    -1.1190 ha         1 38K       0.135000
     46 H13          6.7160     8.3550    -0.5490 h1         1 38K       0.007700
     47 H14          5.8710     9.4290    -1.6720 h1         1 38K       0.007700
     48 H15          7.3760     8.6400    -2.1650 h1         1 38K       0.007700
     49 H16          5.4390    10.6300    -7.9560 h1         1 38K       0.004367
     50 H17          5.5390     8.8650    -8.0210 h1         1 38K       0.004367
     51 H18          4.0350     9.6480    -7.5160 h1         1 38K       0.004367
     52 H19          3.6360     5.7430    -5.7640 h4         1 38K      -0.009900
     53 H313         1.0830    -1.7660    -1.2710 hn         1 38K       0.328467
@<TRIPOS>BOND
     1     1     2 2   
     2     2     3 2   
     3     2     4 1   
     4     2     5 1   
     5     4    35 1   
     6     4    36 1   
     7     4    53 1   
     8     5     6 ar  
     9     5    17 ar  
    10     6     7 1   
    11     6    20 ar  
    12     7     8 1   
    13     7    37 1   
    14     8     9 ar  
    15     8    10 ar  
    16     9    13 ar  
    17     9    38 1   
    18    10    11 ar  
    19    10    39 1   
    20    11    12 ar  
    21    11    40 1   
    22    12    13 ar  
    23    12    41 1   
    24    13    14 1   
    25    14    15 1   
    26    14    16 1   
    27    17    18 ar  
    28    17    42 1   
    29    18    19 ar  
    30    19    20 ar  
    31    19    21 ar  
    32    20    24 ar  
    33    21    22 ar  
    34    21    43 1   
    35    22    23 ar  
    36    22    25 1   
    37    23    24 ar  
    38    23    44 1   
    39    24    45 1   
    40    25    26 ar  
    41    25    34 ar  
    42    26    27 1   
    43    26    29 ar  
    44    27    28 1   
    45    28    46 1   
    46    28    47 1   
    47    28    48 1   
    48    29    30 ar  
    49    30    31 1   
    50    30    33 ar  
    51    31    32 1   
    52    32    49 1   
    53    32    50 1   
    54    32    51 1   
    55    33    34 ar  
    56    34    52 1   
@<TRIPOS>SUBSTRUCTURE
     1 38K         1 TEMP              0 ****  ****    0 ROOT
