@<TRIPOS>MOLECULE
molecule
   53    56     1     0     0
SMALL
bcc


@<TRIPOS>ATOM
      1 O30          0.0000     0.0000     0.0000 o          1 38K      -0.538800
      2 S28          1.4210     0.0000     0.0000 sy         1 38K       1.276200
      3 O29          2.1980     0.0000     1.1880 o          1 38K      -0.538800
      4 N31          1.8880    -1.3330    -0.8650 nz         1 38K      -0.811500
      5 C10          1.9170     1.4180    -0.9200 ca         1 38K      -0.510800
      6 C9           3.2410     1.8320    -0.9010 ca         1 38K       0.374600
      7 N8           4.1940     1.1440    -0.1650 nu         1 38K      -0.778000
      8 C4           4.9230     0.1100    -0.7590 ca         1 38K       0.072600
      9 C3           4.9410    -1.1490    -0.1760 ca         1 38K      -0.195000
     10 C5           5.6230     0.3390    -1.9370 ca         1 38K      -0.184000
     11 C6           6.3400    -0.6820    -2.5320 ca         1 38K      -0.130000
     12 C7           6.3650    -1.9380    -1.9600 ca         1 38K      -0.090000
     13 C2           5.6700    -2.1780    -0.7730 ca         1 38K      -0.085600
     14 C1           5.6950    -3.5210    -0.1580 c          1 38K       0.866200
     15 O47          6.3900    -4.5160    -0.7420 o          1 38K      -0.810300
     16 O49          5.0890    -3.7280     0.8750 o          1 38K      -0.810300
     17 C11          0.9870     2.1240    -1.6710 ca         1 38K       0.507200
     18 N12          1.3210     3.1840    -2.3680 nb         1 38K      -0.676000
     19 C13          2.5780     3.6430    -2.3920 ca         1 38K       0.478600
     20 C14          3.5890     2.9760    -1.6570 ca         1 38K      -0.205300
     21 C18          2.9160     4.7790    -3.1440 ca         1 38K      -0.192300
     22 C17          4.2240     5.2280    -3.1540 cp         1 38K       0.053000
     23 C16          5.2150     4.5570    -2.4200 ca         1 38K      -0.111000
     24 C15          4.9060     3.4580    -1.6810 ca         1 38K      -0.078000
     25 C19          4.5850     6.4240    -3.9520 cp         1 38K      -0.381600
     26 C20          5.3230     7.4750    -3.3830 ca         1 38K       0.745600
     27 O24          5.7210     7.4170    -2.0890 os         1 38K      -0.429100
     28 C25          6.4660     8.5270    -1.5890 c3         1 38K       0.130700
     29 N25          5.6240     8.5260    -4.1330 nb         1 38K      -0.826000
     30 C21          5.2380     8.5890    -5.3970 ca         1 38K       0.959300
     31 O26          5.5590     9.6820    -6.1290 os         1 38K      -0.408100
     32 C27          5.1160     9.7080    -7.4880 c3         1 38K       0.140700
     33 N22          4.5420     7.6180    -5.9670 nb         1 38K      -0.833000
     34 C23          4.2060     6.5320    -5.2890 ca         1 38K       0.541200
     35 H1           2.5280    -1.0560    -1.5840 hn         1 38K       0.500467
     36 H2           2.3350    -1.9870    -0.2540 hn         1 38K       0.500467
     37 H3           4.3650     1.3920     0.7890 hn         1 38K       0.487800
     38 H4           4.4000    -1.3290     0.7450 ha         1 38K       0.154000
     39 H5           5.6070     1.3230    -2.3910 ha         1 38K       0.126000
     40 H6           6.8820    -0.4970    -3.4510 ha         1 38K       0.132000
     41 H7           6.9300    -2.7350    -2.4270 ha         1 38K       0.178000
     42 H9          -0.0430     1.7910    -1.6810 h4         1 38K       0.043100
     43 H10          2.1560     5.3010    -3.7130 ha         1 38K       0.163000
     44 H11          6.2350     4.9210    -2.4380 ha         1 38K       0.157000
     45 H12          5.6790     2.9480    -1.1190 ha         1 38K       0.165000
     46 H13          6.7160     8.3550    -0.5490 h1         1 38K       0.056367
     47 H14          5.8710     9.4290    -1.6720 h1         1 38K       0.056367
     48 H15          7.3760     8.6400    -2.1650 h1         1 38K       0.056367
     49 H16          5.4390    10.6300    -7.9560 h1         1 38K       0.054033
     50 H17          5.5390     8.8650    -8.0210 h1         1 38K       0.054033
     51 H18          4.0350     9.6480    -7.5160 h1         1 38K       0.054033
     52 H19          3.6360     5.7430    -5.7640 h4         1 38K       0.041100
     53 H313         1.0830    -1.7660    -1.2710 hn         1 38K       0.500467
@<TRIPOS>BOND
     1    32    31 1   
     2    31    30 1   
     3    30    33 ar  
     4    30    29 ar  
     5    33    34 ar  
     6    29    26 ar  
     7    28    27 1   
     8    34    25 ar  
     9    26    25 ar  
    10    26    27 1   
    11    25    22 1   
    12    22    23 ar  
    13    22    21 ar  
    14    23    24 ar  
    15    11    12 ar  
    16    11    10 ar  
    17    12    13 ar  
    18    21    19 ar  
    19    24    20 ar  
    20    10     8 ar  
    21    13    14 1   
    22    13     9 ar  
    23    16    14 1   
    24    14    15 1   
    25    19    20 ar  
    26    19    18 ar  
    27    20     6 ar  
    28     8     9 ar  
    29     8     7 1   
    30    18    17 ar  
    31     6     7 1   
    32     6     5 ar  
    33    17     5 ar  
    34     5     2 1   
    35     4     2 1   
    36     2     1 2   
    37     2     3 2   
    38     4    35 1   
    39     4    36 1   
    40     7    37 1   
    41     9    38 1   
    42    10    39 1   
    43    11    40 1   
    44    12    41 1   
    45    17    42 1   
    46    21    43 1   
    47    23    44 1   
    48    24    45 1   
    49    28    46 1   
    50    28    47 1   
    51    28    48 1   
    52    32    49 1   
    53    32    50 1   
    54    32    51 1   
    55    34    52 1   
    56    53     4 1   
@<TRIPOS>SUBSTRUCTURE
     1 38K         1 TEMP              0 ****  ****    0 ROOT
