@<TRIPOS>MOLECULE
molecule
   16    16     1     0     0
SMALL
bcc


@<TRIPOS>ATOM
      1 OAK          0.0000     0.0000     0.0000 o          1 38L      -0.187000
      2 NAG          1.2190     0.0000     0.0000 no         1 38L       0.309200
      3 OAJ          1.8270     0.0000     1.0550 o          1 38L      -0.187000
      4 CAA          1.9590    -0.0070    -1.2820 ca         1 38L      -0.177200
      5 CAF          2.3070     1.1900    -1.8890 ca         1 38L       0.180100
      6 OAH          1.9680     2.3700    -1.3080 oh         1 38L      -0.498600
      7 CAE          3.0010     1.1800    -3.0910 ca         1 38L      -0.197000
      8 CAD          3.3450    -0.0200    -3.6820 ca         1 38L      -0.057000
      9 CAC          2.9990    -1.2140    -3.0780 ca         1 38L      -0.197000
     10 CAB          2.3100    -1.2100    -1.8740 ca         1 38L       0.180100
     11 OAI          1.9710    -2.3850    -1.2810 oh         1 38L      -0.498600
     12 H1           2.7480     2.8730    -1.1400 ho         1 38L       0.438000
     13 H2           3.2730     2.1150    -3.5660 ha         1 38L       0.154000
     14 H3           3.8860    -0.0250    -4.6210 ha         1 38L       0.147000
     15 H4           3.2720    -2.1540    -3.5420 ha         1 38L       0.154000
     16 H5           2.7500    -2.8860    -1.1070 ho         1 38L       0.438000
@<TRIPOS>BOND
     1    11    10 1   
     2    10     9 ar  
     3    10     4 ar  
     4     1     2 1   
     5     9     8 ar  
     6     2     4 1   
     7     2     3 1   
     8     4     5 ar  
     9     8     7 ar  
    10     5     7 ar  
    11     5     6 1   
    12     6    12 1   
    13     7    13 1   
    14     8    14 1   
    15     9    15 1   
    16    11    16 1   
@<TRIPOS>SUBSTRUCTURE
     1 38L         1 TEMP              0 ****  ****    0 ROOT
