@<TRIPOS>MOLECULE
molecule
   72    76     1     0     0
SMALL
bcc


@<TRIPOS>ATOM
      1 C            0.0000     0.0000     0.0000 ca         1 38M      -0.160000
      2 C1           1.3880     0.0000     0.0000 ca         1 38M      -0.089000
      3 C2           2.0920     0.0000     1.1710 ca         1 38M      -0.134000
      4 C3           1.4060     0.0000     2.3900 ca         1 38M       0.210400
      5 C4          -0.0070     0.0010     2.3850 ca         1 38M      -0.209600
      6 C5          -0.6990     0.0060     1.1750 ca         1 38M      -0.047000
      7 C6          -0.7050    -0.0000     3.6790 c          1 38M       0.713100
      8 O           -1.9210     0.0010     3.7390 o          1 38M      -0.604500
      9 N            0.0530     0.0000     4.7990 n          1 38M      -0.276500
     10 N7           2.0630    -0.0010     3.5740 nc         1 38M      -0.682100
     11 C8           1.4180    -0.0010     4.7150 cd         1 38M       0.528800
     12 S            2.3530    -0.0010     6.2080 ss         1 38M      -0.101300
     13 C15          4.0250    -0.1640     5.5320 c3         1 38M      -0.081600
     14 C16          4.2370    -1.5750     5.0490 c          1 38M       0.673100
     15 C17          5.0480     0.1620     6.6210 c3         1 38M      -0.067400
     16 O18          3.5260    -2.4690     5.4590 o          1 38M      -0.600100
     17 N19          5.2150    -1.8440     4.1630 n          1 38M      -0.478800
     18 C20          4.9090     1.6310     7.0300 c3         1 38M      -0.089400
     19 C21          5.8380     1.9220     8.2110 c3         1 38M      -0.083400
     20 C22          5.6980     3.3900     8.6180 c3         1 38M      -0.091100
     21 C23          6.0870    -0.7730     3.6620 c3         1 38M       0.098000
     22 C24          6.0590    -0.7890     2.1300 c3         1 38M      -0.099400
     23 C25          6.4330    -2.1880     1.6320 c3         1 38M      -0.073400
     24 C26          5.4130    -3.2040     2.1470 c3         1 38M      -0.076000
     25 C27          5.4340    -3.2150     3.6830 c3         1 38M       0.124000
     26 C7           5.7660    -4.5970     1.6220 c3         1 38M       0.168800
     27 C18          4.0150    -2.8160     1.6570 c3         1 38M      -0.076400
     28 C19          3.0070    -3.8690     2.1290 c3         1 38M      -0.084400
     29 N1           4.7740    -5.5680     2.1020 n7         1 38M      -0.819200
     30 C35          3.4310    -5.2430     1.6050 c3         1 38M       0.155800
     31 C9          -0.5650    -0.0000     6.0560 ca         1 38M       0.017600
     32 C10         -0.6580    -1.1780     6.7860 ca         1 38M      -0.096000
     33 C11         -1.2680    -1.1750     8.0260 ca         1 38M      -0.117000
     34 C12         -1.7850    -0.0010     8.5400 ca         1 38M      -0.107000
     35 C13         -1.6950     1.1750     7.8160 ca         1 38M       0.028400
     36 C14         -1.0810     1.1790     6.5780 ca         1 38M      -0.095000
     37 Cl          -2.3460     2.6460     8.4660 cl         1 38M      -0.100400
     38 H           -0.5360    -0.0000    -0.9420 ha         1 38M       0.135000
     39 H1           1.9220    -0.0050    -0.9430 ha         1 38M       0.132000
     40 H2           3.1750     0.0000     1.1560 ha         1 38M       0.144000
     41 H5          -1.7820     0.0060     1.1660 ha         1 38M       0.155000
     42 H15          4.1470     0.5240     4.7040 h1         1 38M       0.107700
     43 H17          6.0480    -0.0130     6.2410 hc         1 38M       0.061700
     44 H17A         4.8730    -0.4700     7.4820 hc         1 38M       0.061700
     45 H20          5.1780     2.2650     6.1940 hc         1 38M       0.050700
     46 H20A         3.8840     1.8290     7.3190 hc         1 38M       0.050700
     47 H21          5.5690     1.2880     9.0470 hc         1 38M       0.042200
     48 H21A         6.8630     1.7230     7.9220 hc         1 38M       0.042200
     49 H22          5.9620     4.0240     7.7810 hc         1 38M       0.035033
     50 H22A         4.6740     3.5870     8.9120 hc         1 38M       0.035033
     51 H22B         6.3590     3.5980     9.4510 hc         1 38M       0.035033
     52 H23          7.1010    -0.9400     4.0070 h1         1 38M       0.049200
     53 H23A         5.7290     0.1840     4.0210 h1         1 38M       0.049200
     54 H24          5.0640    -0.5370     1.7850 hc         1 38M       0.051700
     55 H24A         6.7730    -0.0680     1.7490 hc         1 38M       0.051700
     56 H25          7.4180    -2.4490     2.0010 hc         1 38M       0.043700
     57 H25A         6.4340    -2.1960     0.5490 hc         1 38M       0.043700
     58 H27          4.6460    -3.8590     4.0520 h1         1 38M       0.074200
     59 H27A         6.3970    -3.5720     4.0300 h1         1 38M       0.074200
     60 H7           5.7620    -4.5850     0.5390 h1         1 38M       0.032700
     61 H7A          6.7480    -4.8780     1.9820 h1         1 38M       0.032700
     62 H18          4.0100    -2.7720     0.5750 hc         1 38M       0.048700
     63 H18A         3.7440    -1.8500     2.0660 hc         1 38M       0.048700
     64 H19          2.0240    -3.6250     1.7450 hc         1 38M       0.060200
     65 H19A         2.9850    -3.8870     3.2120 hc         1 38M       0.060200
     66 HN1          5.0300    -6.4860     1.7970 hn         1 38M       0.352800
     67 H35          2.7290    -5.9920     1.9520 h1         1 38M       0.030700
     68 H35A         3.4430    -5.2270     0.5220 h1         1 38M       0.030700
     69 H10         -0.2530    -2.0980     6.3830 ha         1 38M       0.156000
     70 H11         -1.3400    -2.0930     8.5950 ha         1 38M       0.146000
     71 H12         -2.2650    -0.0020     9.5120 ha         1 38M       0.147000
     72 H14         -1.0100     2.1000     6.0110 ha         1 38M       0.155000
@<TRIPOS>BOND
     1     6     1 ar  
     2     1     2 ar  
     3     1    38 1   
     4     2     3 ar  
     5     2    39 1   
     6     4     3 ar  
     7     3    40 1   
     8     5     4 ar  
     9     4    10 1   
    10     7     5 1   
    11     6     5 ar  
    12     6    41 1   
    13     8     7 2   
    14     7     9 1   
    15    31     9 1   
    16     9    11 1   
    17    11    10 2   
    18    11    12 1   
    19    12    13 1   
    20    15    13 1   
    21    13    14 1   
    22    13    42 1   
    23    14    16 2   
    24    14    17 1   
    25    15    18 1   
    26    15    43 1   
    27    15    44 1   
    28    21    17 1   
    29    17    25 1   
    30    19    18 1   
    31    18    45 1   
    32    18    46 1   
    33    19    20 1   
    34    19    47 1   
    35    19    48 1   
    36    20    49 1   
    37    20    50 1   
    38    20    51 1   
    39    21    22 1   
    40    21    52 1   
    41    21    53 1   
    42    22    23 1   
    43    22    54 1   
    44    22    55 1   
    45    23    24 1   
    46    23    56 1   
    47    23    57 1   
    48    25    24 1   
    49    24    26 1   
    50    24    27 1   
    51    25    58 1   
    52    25    59 1   
    53    26    29 1   
    54    26    60 1   
    55    26    61 1   
    56    27    28 1   
    57    27    62 1   
    58    27    63 1   
    59    28    30 1   
    60    28    64 1   
    61    28    65 1   
    62    29    30 1   
    63    29    66 1   
    64    30    67 1   
    65    30    68 1   
    66    32    31 ar  
    67    36    31 ar  
    68    33    32 ar  
    69    32    69 1   
    70    34    33 ar  
    71    33    70 1   
    72    34    35 ar  
    73    34    71 1   
    74    35    37 1   
    75    35    36 ar  
    76    36    72 1   
@<TRIPOS>SUBSTRUCTURE
     1 38M         1 TEMP              0 ****  ****    0 ROOT
