@<TRIPOS>MOLECULE
38O
   51    55     1     0     0
SMALL
bcc


@<TRIPOS>ATOM
      1 C1           0.0000     0.0000     0.0000 c3         1 38O       0.190100
      2 C3           2.4220     0.0000     0.0000 c3         1 38O       0.154300
      3 C4           3.6570     0.0000     0.9050 c3         1 38O       0.134800
      4 C6           2.4470    -1.2910     2.5560 c3         1 38O       0.134800
      5 C7           1.2120    -1.2920     1.6520 c3         1 38O       0.154300
      6 C8           4.8120    -1.2880     2.5170 ca         1 38O       0.047600
      7 C12          7.7770    -2.9460     5.5170 cc         1 38O       0.197100
      8 N13          8.1290    -1.7530     4.9420 na         1 38O       0.353700
      9 C15          6.9040    -0.3300     3.2170 ca         1 38O      -0.049000
     10 C16          5.7630    -0.2730     2.4440 ca         1 38O      -0.114000
     11 C17          8.5780    -3.6740     6.5150 cc         1 38O      -0.054800
     12 C18          8.1850    -4.9470     6.9380 cd         1 38O      -0.233200
     13 C21          8.6790    -6.9080     8.4000 ca         1 38O       0.110900
     14 C23          9.4820    -7.5250     9.3370 ca         1 38O      -0.110000
     15 C24         10.6170    -6.8870     9.8160 ca         1 38O      -0.013000
     16 N2           1.2110    -0.0730     0.8300 n3         1 38O      -0.549600
     17 N5           3.6580    -1.2170     1.7270 nh         1 38O      -0.358000
     18 C9           5.0030    -2.3660     3.3600 ca         1 38O      -0.101000
     19 C10          6.1590    -2.4370     4.1430 ca         1 38O       0.102400
     20 N11          6.6180    -3.3430     5.0430 nd         1 38O      -0.593100
     21 C14          7.1140    -1.4080     4.0640 ca         1 38O      -0.277200
     22 N19          7.0530    -5.5410     6.4350 nz         1 38O       0.197600
     23 C20          9.0170    -5.6320     7.9340 ca         1 38O      -0.135800
     24 F22          7.5760    -7.5330     7.9350 f          1 38O      -0.119900
     25 C25         10.9610    -5.6290     9.3680 ca         1 38O      -0.135000
     26 C26         10.1680    -4.9870     8.4220 ca         1 38O      -0.032400
     27 N27         10.5010    -3.7280     7.9630 ns         1 38O       0.097900
     28 C28          9.7520    -3.0930     7.0470 c          1 38O       0.585700
     29 H1          -0.8760    -0.0230     0.6370 h1         1 38O       0.005367
     30 H2          -0.0250    -0.8440    -0.6780 h1         1 38O       0.005367
     31 H3           0.0080     0.9210    -0.5700 h1         1 38O       0.005367
     32 H4           2.4040     0.9120    -0.5850 h1         1 38O       0.020450
     33 H5           2.4590    -0.8580    -0.6600 h1         1 38O       0.020450
     34 H6           4.5510     0.0230     0.2930 h1         1 38O       0.024450
     35 H7           3.6310     0.8700     1.5500 h1         1 38O       0.024450
     36 H8           2.4100    -0.4320     3.2160 h1         1 38O       0.024450
     37 H9           2.4660    -2.2020     3.1410 h1         1 38O       0.024450
     38 H10          1.2390    -2.1620     1.0070 h1         1 38O       0.020450
     39 H11          0.3180    -1.3150     2.2640 h1         1 38O       0.020450
     40 H12          9.0200    -1.3040     5.0170 hn         1 38O       0.172700
     41 H13          7.6400     0.4620     3.1560 ha         1 38O       0.116000
     42 H14          5.6070     0.5660     1.7760 ha         1 38O       0.140000
     43 H15          9.2620    -8.5090     9.7340 ha         1 38O       0.143000
     44 H16         11.2220    -7.4060    10.5510 ha         1 38O       0.130000
     45 H18          4.2610    -3.1530     3.4140 ha         1 38O       0.126000
     46 H20          7.1430    -6.5360     6.4940 hn         1 38O       0.239467
     47 H21          6.9320    -5.2730     5.4780 hn         1 38O       0.239467
     48 H22         11.8690    -5.2970     9.8550 ha         1 38O       0.144000
     49 H23         11.3250    -3.2820     8.3150 hn         1 38O       0.200500
     50 O29         10.0890    -1.9830     6.6690 o          1 38O      -0.670500
     51 H193         6.2570    -5.2460     6.9670 hn         1 38O       0.239467
@<TRIPOS>BOND
     1     1    16 1   
     2     1    29 1   
     3     1    30 1   
     4     1    31 1   
     5     2     3 1   
     6     2    16 1   
     7     2    32 1   
     8     2    33 1   
     9     3    17 1   
    10     3    34 1   
    11     3    35 1   
    12     4     5 1   
    13     4    17 1   
    14     4    36 1   
    15     4    37 1   
    16     5    16 1   
    17     5    38 1   
    18     5    39 1   
    19     6    10 ar  
    20     6    17 1   
    21     6    18 ar  
    22     7     8 1   
    23     7    11 1   
    24     7    20 2   
    25     8    21 1   
    26     8    40 1   
    27     9    10 ar  
    28     9    21 ar  
    29     9    41 1   
    30    10    42 1   
    31    11    12 2   
    32    11    28 1   
    33    12    22 1   
    34    12    23 1   
    35    13    14 ar  
    36    13    23 ar  
    37    13    24 1   
    38    14    15 ar  
    39    14    43 1   
    40    15    25 ar  
    41    15    44 1   
    42    18    19 ar  
    43    18    45 1   
    44    19    20 1   
    45    19    21 ar  
    46    22    46 1   
    47    22    47 1   
    48    22    51 1   
    49    23    26 ar  
    50    25    26 ar  
    51    25    48 1   
    52    26    27 1   
    53    27    28 1   
    54    27    49 1   
    55    28    50 2   
@<TRIPOS>SUBSTRUCTURE
     1 38O         1 TEMP              0 ****  ****    0 ROOT
