@<TRIPOS>MOLECULE
molecule
   51    55     1     0     0
SMALL
bcc


@<TRIPOS>ATOM
      1 C1           0.0000     0.0000     0.0000 c3         1 38O       0.152100
      2 C3           2.4220     0.0000     0.0000 c3         1 38O       0.161300
      3 C4           3.6570     0.0000     0.9050 c3         1 38O       0.162300
      4 C6           2.4470    -1.2910     2.5560 c3         1 38O       0.162300
      5 C7           1.2120    -1.2920     1.6520 c3         1 38O       0.161300
      6 C8           4.8120    -1.2880     2.5170 ca         1 38O       0.121600
      7 C12          7.7770    -2.9460     5.5170 cc         1 38O       0.426100
      8 N13          8.1290    -1.7530     4.9420 na         1 38O      -0.204300
      9 C15          6.9040    -0.3300     3.2170 ca         1 38O      -0.100000
     10 C16          5.7630    -0.2730     2.4440 ca         1 38O      -0.128000
     11 C17          8.5780    -3.6740     6.5150 cc         1 38O      -0.115800
     12 C18          8.1850    -4.9470     6.9380 cd         1 38O       0.025800
     13 C21          8.6790    -6.9080     8.4000 ca         1 38O       0.147900
     14 C23          9.4820    -7.5250     9.3370 ca         1 38O      -0.155000
     15 C24         10.6170    -6.8870     9.8160 ca         1 38O      -0.042000
     16 N2           1.2110    -0.0730     0.8300 n3         1 38O      -0.733600
     17 N5           3.6580    -1.2170     1.7270 nh         1 38O      -0.595000
     18 C9           5.0030    -2.3660     3.3600 ca         1 38O      -0.121000
     19 C10          6.1590    -2.4370     4.1430 ca         1 38O       0.119400
     20 N11          6.6180    -3.3430     5.0430 nd         1 38O      -0.681100
     21 C14          7.1140    -1.4080     4.0640 ca         1 38O      -0.083200
     22 N19          7.0530    -5.5410     6.4350 nz         1 38O      -0.676400
     23 C20          9.0170    -5.6320     7.9340 ca         1 38O      -0.170800
     24 F22          7.5760    -7.5330     7.9350 f          1 38O      -0.141900
     25 C25         10.9610    -5.6290     9.3680 ca         1 38O      -0.173000
     26 C26         10.1680    -4.9870     8.4220 ca         1 38O       0.140600
     27 N27         10.5010    -3.7280     7.9630 ns         1 38O      -0.404100
     28 C28          9.7520    -3.0930     7.0470 c          1 38O       0.707700
     29 H1          -0.8760    -0.0230     0.6370 h1         1 38O       0.038367
     30 H2          -0.0250    -0.8440    -0.6780 h1         1 38O       0.038367
     31 H3           0.0080     0.9210    -0.5700 h1         1 38O       0.038367
     32 H4           2.4040     0.9120    -0.5850 h1         1 38O       0.049200
     33 H5           2.4590    -0.8580    -0.6600 h1         1 38O       0.049200
     34 H6           4.5510     0.0230     0.2930 h1         1 38O       0.050700
     35 H7           3.6310     0.8700     1.5500 h1         1 38O       0.050700
     36 H8           2.4100    -0.4320     3.2160 h1         1 38O       0.050700
     37 H9           2.4660    -2.2020     3.1410 h1         1 38O       0.050700
     38 H10          1.2390    -2.1620     1.0070 h1         1 38O       0.049200
     39 H11          0.3180    -1.3150     2.2640 h1         1 38O       0.049200
     40 H12          9.0200    -1.3040     5.0170 hn         1 38O       0.346700
     41 H13          7.6400     0.4620     3.1560 ha         1 38O       0.148000
     42 H14          5.6070     0.5660     1.7760 ha         1 38O       0.162000
     43 H15          9.2620    -8.5090     9.7340 ha         1 38O       0.177000
     44 H16         11.2220    -7.4060    10.5510 ha         1 38O       0.172000
     45 H18          4.2610    -3.1530     3.4140 ha         1 38O       0.152000
     46 H20          7.1430    -6.5360     6.4940 hn         1 38O       0.475800
     47 H21          6.9320    -5.2730     5.4780 hn         1 38O       0.475800
     48 H22         11.8690    -5.2970     9.8550 ha         1 38O       0.176000
     49 H23         11.3250    -3.2820     8.3150 hn         1 38O       0.373500
     50 O29         10.0890    -1.9830     6.6690 o          1 38O      -0.610500
     51 H193         6.2570    -5.2460     6.9670 hn         1 38O       0.475800
@<TRIPOS>BOND
     1     3     2 1   
     2     3    17 1   
     3     2    16 1   
     4    24    13 1   
     5    16     1 1   
     6    16     5 1   
     7    17     4 1   
     8    17     6 1   
     9    22    12 1   
    10     4     5 1   
    11    18     6 ar  
    12    18    19 ar  
    13     6    10 ar  
    14    13    14 ar  
    15    13    23 ar  
    16    20    19 1   
    17    20     7 2   
    18    19    21 ar  
    19    14    15 ar  
    20    12    23 1   
    21    12    11 2   
    22    10     9 ar  
    23    23    26 ar  
    24     7    11 1   
    25     7     8 1   
    26    21     9 ar  
    27    21     8 1   
    28    11    28 1   
    29    15    25 ar  
    30    26    25 ar  
    31    26    27 1   
    32    28    27 1   
    33    28    50 2   
    34     1    29 1   
    35     1    30 1   
    36     1    31 1   
    37     2    32 1   
    38     2    33 1   
    39     3    34 1   
    40     3    35 1   
    41     4    36 1   
    42     4    37 1   
    43     5    38 1   
    44     5    39 1   
    45     8    40 1   
    46     9    41 1   
    47    10    42 1   
    48    14    43 1   
    49    15    44 1   
    50    18    45 1   
    51    22    46 1   
    52    22    47 1   
    53    25    48 1   
    54    27    49 1   
    55    51    22 1   
@<TRIPOS>SUBSTRUCTURE
     1 38O         1 TEMP              0 ****  ****    0 ROOT
