@<TRIPOS>MOLECULE
38P
   56    59     1     0     0
SMALL
bcc


@<TRIPOS>ATOM
      1 N1           0.0000     0.0000     0.0000 na         1 38P       0.793200
      2 N2           1.4030     0.0000     0.0000 nc         1 38P      -0.762800
      3 C3           2.0570     0.0000     1.1270 cd         1 38P       0.759900
      4 N4           1.4410    -0.0000     2.3090 nd         1 38P      -0.795000
      5 C5           0.1220    -0.0010     2.4040 cc         1 38P       0.626200
      6 C6          -0.6550     0.0050     1.2180 cc         1 38P      -0.503600
      7 C7          -2.0100     0.0080     0.9780 cd         1 38P      -0.024200
      8 C8          -2.1760     0.0170    -0.4220 cd         1 38P      -0.226200
      9 C9          -0.9100    -0.0010    -0.9840 cc         1 38P      -0.283100
     10 C10         -3.4570     0.0210    -1.1520 c          1 38P       0.637300
     11 O11         -4.5070     0.0170    -0.5380 o          1 38P      -0.665100
     12 N12         -3.4660     0.0290    -2.4990 ns         1 38P      -0.197900
     13 C13         -4.7390     0.0340    -3.2240 c3         1 38P       0.049000
     14 C14         -4.4680     0.0420    -4.7300 c3         1 38P      -0.042400
     15 C15         -5.7980     0.0470    -5.4870 c3         1 38P       0.013900
     16 C16         -3.1070     0.0020     2.0130 c3         1 38P       0.048100
     17 N17         -0.4890    -0.0030     3.6400 nu         1 38P      -0.259300
     18 C18          0.2830    -0.0960     4.8020 ca         1 38P      -0.036400
     19 C19         -0.2470    -0.6890     5.9420 ca         1 38P      -0.093300
     20 C20          0.5130    -0.7840     7.0930 ca         1 38P      -0.094000
     21 C21          1.8020    -0.2900     7.1180 ca         1 38P      -0.093000
     22 C22          2.3430     0.3060     5.9780 ca         1 38P      -0.146600
     23 C23          1.5780     0.3970     4.8140 ca         1 38P      -0.043000
     24 C24          3.7230     0.8360     6.0020 c          1 38P       0.597700
     25 O25          4.1920     1.3560     5.0080 o          1 38P      -0.642100
     26 N26          4.4610     0.7430     7.1260 ns         1 38P      -0.145900
     27 C27          5.8290     1.2680     7.1490 cx         1 38P      -0.044300
     28 C28          6.8020     0.6590     8.1610 cx         1 38P      -0.095400
     29 C29          6.2550     2.0710     8.3800 cx         1 38P      -0.095400
     30 C30         -1.6530    -1.2300     5.9240 c3         1 38P       0.056200
     31 H3           3.1400     0.0000     1.1020 h5         1 38P       0.011100
     32 H9          -0.6910    -0.0000    -2.0450 h4         1 38P       0.153000
     33 HN12        -2.6030     0.0320    -3.0050 hn         1 38P       0.175500
     34 H13         -5.3060    -0.8520    -2.9640 h1         1 38P       0.026700
     35 H13A        -5.3050     0.9170    -2.9540 h1         1 38P       0.026700
     36 H14         -3.9010     0.9280    -4.9900 hc         1 38P       0.014200
     37 H14A        -3.9020    -0.8410    -5.0000 hc         1 38P       0.014200
     38 H15         -6.3640     0.9300    -5.2170 hc         1 38P       0.003700
     39 H15A        -5.6060     0.0530    -6.5540 hc         1 38P       0.003700
     40 H15B        -6.3650    -0.8390    -5.2270 hc         1 38P       0.003700
     41 H16         -3.0480    -0.9090     2.5960 hc         1 38P       0.024033
     42 H16A        -2.9900     0.8580     2.6670 hc         1 38P       0.024033
     43 H16B        -4.0690     0.0530     1.5190 hc         1 38P       0.024033
     44 HN17        -1.4820     0.1060     3.7070 hn         1 38P       0.309800
     45 H20          0.0950    -1.2470     7.9790 ha         1 38P       0.110000
     46 H21          2.3930    -0.3650     8.0230 ha         1 38P       0.101000
     47 H23          1.9930     0.8590     3.9260 ha         1 38P       0.184000
     48 HN26         4.0790     0.3070     7.9410 hn         1 38P       0.174500
     49 H27          6.2820     1.5880     6.2190 h1         1 38P       0.097700
     50 H28          7.8350     0.6020     7.8400 hc         1 38P       0.047950
     51 H28A         6.3880    -0.1080     8.8050 hc         1 38P       0.047950
     52 H29          6.9550     2.8770     8.1920 hc         1 38P       0.047950
     53 H29A         5.5080     2.1670     9.1570 hc         1 38P       0.047950
     54 H30         -1.7540    -1.9460     5.1170 hc         1 38P       0.011700
     55 H30A        -2.3510    -0.4150     5.7730 hc         1 38P       0.011700
     56 H30B        -1.8660    -1.7160     6.8680 hc         1 38P       0.011700
@<TRIPOS>BOND
     1     1     2 1   
     2     1     6 1   
     3     1     9 1   
     4     2     3 2   
     5     3     4 1   
     6     3    31 1   
     7     4     5 2   
     8     5     6 1   
     9     5    17 1   
    10     6     7 2   
    11     7     8 1   
    12     7    16 1   
    13     8     9 2   
    14     8    10 1   
    15     9    32 1   
    16    10    11 2   
    17    10    12 1   
    18    12    13 1   
    19    12    33 1   
    20    13    14 1   
    21    13    34 1   
    22    13    35 1   
    23    14    15 1   
    24    14    36 1   
    25    14    37 1   
    26    15    38 1   
    27    15    39 1   
    28    15    40 1   
    29    16    41 1   
    30    16    42 1   
    31    16    43 1   
    32    17    18 1   
    33    17    44 1   
    34    18    19 ar  
    35    18    23 ar  
    36    19    20 ar  
    37    19    30 1   
    38    20    21 ar  
    39    20    45 1   
    40    21    22 ar  
    41    21    46 1   
    42    22    23 ar  
    43    22    24 1   
    44    23    47 1   
    45    24    25 2   
    46    24    26 1   
    47    26    27 1   
    48    26    48 1   
    49    27    28 1   
    50    27    29 1   
    51    27    49 1   
    52    28    29 1   
    53    28    50 1   
    54    28    51 1   
    55    29    52 1   
    56    29    53 1   
    57    30    54 1   
    58    30    55 1   
    59    30    56 1   
@<TRIPOS>SUBSTRUCTURE
     1 38P         1 TEMP              0 ****  ****    0 ROOT
