@<TRIPOS>MOLECULE
molecule
   52    55     1     0     0
SMALL
bcc


@<TRIPOS>ATOM
      1 O19          0.0000     0.0000     0.0000 o          1 38Q      -0.817300
      2 C18          1.2150     0.0000     0.0000 c          1 38Q       0.875200
      3 O20          1.8890     0.0000     1.1660 o          1 38Q      -0.817300
      4 C14          1.9520    -0.0070    -1.2800 ca         1 38Q      -0.055600
      5 C15          3.3490    -0.0130    -1.2830 ca         1 38Q      -0.112000
      6 C16          4.0360    -0.0190    -2.4800 ca         1 38Q      -0.125000
      7 C17          3.3470    -0.0180    -3.6780 ca         1 38Q      -0.231000
      8 C13          1.2570    -0.0130    -2.4890 ca         1 38Q      -0.147000
      9 C12          1.9570    -0.0130    -3.6860 ca         1 38Q       0.127600
     10 N11          1.2650    -0.0120    -4.9010 nu         1 38Q      -0.739000
     11 C10          1.9550     0.1090    -6.0870 ca         1 38Q       0.388600
     12 C9           2.3730    -1.0240    -6.8020 ca         1 38Q      -0.379900
     13 C21          2.0780    -2.3730    -6.2940 c          1 38Q       0.500700
     14 N22          2.5750    -3.4550    -6.9260 nz         1 38Q      -0.674400
     15 O33          1.3850    -2.5120    -5.3040 o          1 38Q      -0.395100
     16 C5           2.2620     1.3810    -6.6280 ca         1 38Q      -0.192300
     17 C6           2.9740     1.4530    -7.8500 ca         1 38Q       0.440600
     18 N7           3.3490     0.3300    -8.4810 nb         1 38Q      -0.673000
     19 C8           3.0740    -0.8570    -8.0070 ca         1 38Q       0.395200
     20 C4           1.8720     2.5570    -5.9720 ca         1 38Q      -0.055000
     21 C3           2.1780     3.7680    -6.5100 ca         1 38Q      -0.113000
     22 C2           2.8820     3.8570    -7.7210 cp         1 38Q       0.057000
     23 C1           3.2800     2.7100    -8.3890 ca         1 38Q      -0.191300
     24 C23          3.2020     5.1870    -8.2890 cp         1 38Q      -0.382600
     25 C24          4.5000     5.4960    -8.6980 ca         1 38Q       0.542200
     26 N25          4.7470     6.6950    -9.2000 nb         1 38Q      -0.835000
     27 C26          3.7850     7.5970    -9.3190 ca         1 38Q       0.958300
     28 O31          4.0840     8.8120    -9.8330 os         1 38Q      -0.408100
     29 C32          5.4410     9.0360   -10.2240 c3         1 38Q       0.140700
     30 N27          2.5410     7.3480    -8.9440 nb         1 38Q      -0.826000
     31 C28          2.2080     6.1680    -8.4360 ca         1 38Q       0.745600
     32 O29          0.9320     5.9180    -8.0540 os         1 38Q      -0.426100
     33 C30         -0.0150     6.9740    -8.2250 c3         1 38Q       0.130700
     34 H2           3.8930    -0.0140    -0.3460 ha         1 38Q       0.169000
     35 H3           5.1200    -0.0230    -2.4810 ha         1 38Q       0.116000
     36 H4           3.8920    -0.0200    -4.6150 ha         1 38Q       0.092000
     37 H5           0.1740    -0.0090    -2.4930 ha         1 38Q       0.153000
     38 H6           0.2680    -0.1010    -4.9090 hn         1 38Q       0.470800
     39 H7           2.3360    -4.2800    -6.4130 hn         1 38Q       0.468800
     40 H8           2.1880    -3.5110    -7.8470 hn         1 38Q       0.468800
     41 H9           3.4220    -1.5280    -8.7840 h4         1 38Q       0.021100
     42 H10          1.0480     2.6510    -5.2750 ha         1 38Q       0.171000
     43 H11          2.1590     4.5950    -5.8100 ha         1 38Q       0.163000
     44 H12          3.7090     2.6770    -9.3830 ha         1 38Q       0.161000
     45 H13          5.2940     4.7650    -8.6050 h4         1 38Q       0.041100
     46 H14          5.5430    10.0400   -10.6170 h1         1 38Q       0.053700
     47 H15          5.7200     8.3190   -10.9870 h1         1 38Q       0.053700
     48 H16          6.0890     8.9170    -9.3630 h1         1 38Q       0.053700
     49 H17         -0.9900     6.6440    -7.8880 h1         1 38Q       0.056033
     50 H18          0.2960     7.8350    -7.6460 h1         1 38Q       0.056033
     51 H19         -0.0680     7.2440    -9.2730 h1         1 38Q       0.056033
     52 H223         3.5710    -3.3760    -6.9890 hn         1 38Q       0.468800
@<TRIPOS>BOND
     1    29    28 1
     2    28    27 1
     3    27    30 ar
     4    27    26 ar
     5    30    31 ar
     6    26    25 ar
     7    33    32 1
     8    31    32 1
     9    31    24 ar
    10    25    24 ar
    11    24    22 1
    12    22    21 ar
    13    22    23 ar
    14    21    20 ar
    15    23    17 ar
    16     5     6 ar
    17     5     4 ar
    18     1     2 1
    19     6     7 ar
    20    20    16 ar
    21     2     4 1
    22     2     3 1
    23     4     8 ar
    24     7     9 ar
    25    17    16 ar
    26    17    18 ar
    27    16    11 ar
    28     8     9 ar
    29     9    10 1
    30    18    19 ar
    31    10    11 1
    32    11    12 ar
    33    19    12 ar
    34    12    13 1
    35    13    15 2
    36    13    14 1
    37     5    34 1
    38     6    35 1
    39     7    36 1
    40     8    37 1
    41    10    38 1
    42    14    39 1
    43    14    40 1
    44    19    41 1
    45    20    42 1
    46    21    43 1
    47    23    44 1
    48    25    45 1
    49    29    46 1
    50    29    47 1
    51    29    48 1
    52    33    49 1
    53    33    50 1
    54    33    51 1
    55    52    14 1
@<TRIPOS>SUBSTRUCTURE
     1 38Q         1 TEMP              0 ****  ****    0 ROOT
