@<TRIPOS>MOLECULE
38R
   50    53     1     0     0
SMALL
bcc


@<TRIPOS>ATOM
      1 C4          0.1300   -0.2960   -0.2730 ca        1 38R      0.690200
      2 C5          1.5080   -0.6690   -0.3480 ca        1 38R     -0.335600
      3 C6          2.0430   -1.3750    0.7400 ca        1 38R      0.502200
      4 N1          1.3170   -1.7000    1.8320 nb        1 38R     -0.661000
      5 N3         -0.6440   -0.6200    0.8160 nb        1 38R     -0.763000
      6 C1U        -3.7470    2.6580    2.2860 c3        1 38R     -0.073400
      7 C1T        -4.3600    1.6080    1.3540 c3        1 38R     -0.031500
      8 C1R        -3.4340    1.1800    0.2760 ce        1 38R      0.052400
      9 C1S        -2.2390    1.7180   -0.1280 c2        1 38R     -0.095200
     10 N1Q        -3.7840    0.0470   -0.5650 ne        1 38R     -0.133700
     11 N1P        -2.8940   -0.1360   -1.4200 nh        1 38R      0.033700
     12 C1H        -1.7410    0.9390   -1.3540 c3        1 38R      0.294400
     13 N1G        -0.4350    0.4190   -1.3390 nh        1 38R     -0.854900
     14 C1Y        -5.0510    1.0600    3.6290 c3        1 38R     -0.088400
     15 C2          0.0100   -1.2980    1.8130 ca        1 38R      0.764900
     16 N1I        -0.7940   -1.6390    3.0350 n4        1 38R     -0.604100
     17 C1J        -0.4670   -0.7510    4.1590 ca        1 38R     -0.078400
     18 C1K        -1.3320    0.3140    4.4730 ca        1 38R     -0.088000
     19 C1L        -1.0300    1.1300    5.5560 ca        1 38R     -0.105500
     20 C1O         0.6880   -0.9910    4.9240 ca        1 38R     -0.088000
     21 C1N         0.9710   -0.1570    6.0030 ca        1 38R     -0.105500
     22 C1M         0.1230    0.9100    6.3250 ca        1 38R      0.000700
     23 C1V         0.4440    1.7870    7.4890 c3        1 38R      0.007000
     24 C01        -4.3730    2.4250    3.6560 c3        1 38R     -0.088400
     25 C1Z         0.0390    3.1580    7.2690 c1        1 38R      0.181700
     26 C03        -4.8030    0.4500    2.2560 c3        1 38R     -0.073400
     27 N1A        -0.2740    4.2650    7.1040 n1        1 38R     -0.309800
     28 H5          2.1390   -0.4160   -1.2140 ha        1 38R      0.205000
     29 H1G        -1.8920    1.5710   -2.2940 h2        1 38R      0.175700
     30 H6          3.1060   -1.7040    0.7560 h4        1 38R      0.095100
     31 H1T        -5.2770    2.0540    0.8640 hc        1 38R      0.115700
     32 H011       -3.5900    2.4690    4.4540 hc        1 38R      0.067450
     33 H012       -5.1210    3.2270    3.8840 hc        1 38R      0.067450
     34 H031       -5.7240   -0.0400    1.8540 hc        1 38R      0.048700
     35 H032       -3.9990   -0.3270    2.3160 hc        1 38R      0.048700
     36 H1S        -1.6910    2.5780    0.2700 ha        1 38R      0.234000
     37 H1P        -2.9650   -0.8670   -2.1180 hn        1 38R      0.379700
     38 H1Y1       -6.1520    1.1700    3.8100 hc        1 38R      0.067450
     39 H1Y2       -4.6510    0.3950    4.4340 hc        1 38R      0.067450
     40 H1I        -0.5740   -2.6120    3.3050 hn        1 38R      0.481800
     41 H1O         1.3760   -1.8220    4.6870 ha        1 38R      0.165000
     42 H1K        -2.2490    0.5120    3.8900 ha        1 38R      0.165000
     43 H1N         1.8770   -0.3460    6.6060 ha        1 38R      0.180500
     44 H1L        -1.7090    1.9630    5.8120 ha        1 38R      0.180500
     45 H1V1        1.5510    1.7640    7.7070 hc        1 38R      0.114200
     46 H1V2       -0.0840    1.3860    8.4060 hc        1 38R      0.114200
     47 H1U1       -3.9590    3.6920    1.9150 hc        1 38R      0.048700
     48 H1G2        0.0940    0.4470   -2.1890 hn        1 38R      0.497800
     49 H1I2       -1.7980   -1.5620    2.8220 hn        1 38R      0.481800
     50 H1U2       -2.6350    2.5370    2.3460 hc        1 38R      0.048700
@<TRIPOS>BOND
     1    1    2 ar  
     2    1    5 ar  
     3    1   13 1   
     4    2    3 ar  
     5    2   28 1   
     6    3    4 ar  
     7    3   30 1   
     8    4   15 ar  
     9    5   15 ar  
    10    6    7 1   
    11    6   24 1   
    12    6   47 1   
    13    6   50 1   
    14    7    8 1   
    15    7   26 1   
    16    7   31 1   
    17    8    9 2   
    18    8   10 1   
    19    9   12 1   
    20    9   36 1   
    21   10   11 2   
    22   11   12 1   
    23   11   37 1   
    24   12   13 1   
    25   12   29 1   
    26   13   48 1   
    27   14   24 1   
    28   14   26 1   
    29   14   38 1   
    30   14   39 1   
    31   15   16 1   
    32   16   17 1   
    33   16   40 1   
    34   16   49 1   
    35   17   18 ar  
    36   17   20 ar  
    37   18   19 ar  
    38   18   42 1   
    39   19   22 ar  
    40   19   44 1   
    41   20   21 ar  
    42   20   41 1   
    43   21   22 ar  
    44   21   43 1   
    45   22   23 1   
    46   23   25 1   
    47   23   45 1   
    48   23   46 1   
    49   24   32 1   
    50   24   33 1   
    51   25   27 3   
    52   26   34 1   
    53   26   35 1   
@<TRIPOS>SUBSTRUCTURE
     1 38R         1 TEMP              0 ****  ****    0 ROOT
