@<TRIPOS>MOLECULE
molecule
   30    31     1     0     0
SMALL
bcc


@<TRIPOS>ATOM
      1 OAC          0.0000     0.0000     0.0000 o          1 38S      -0.661500
      2 CAM          1.2160     0.0000     0.0000 c          1 38S       0.812500
      3 NAI          1.8790     0.0000     1.1710 ns         1 38S      -0.558500
      4 CAL          3.2270     0.0010     1.1890 c          1 38S       0.708700
      5 OAB          3.8280     0.0010     2.2480 o          1 38S      -0.622500
      6 CAK          3.9380    -0.0000    -0.0360 cc         1 38S      -0.285400
      7 CAA          5.4450    -0.0010    -0.0450 c3         1 38S      -0.019900
      8 CAE          3.2470    -0.0020    -1.1960 cd         1 38S       0.041600
      9 NAP          1.8790    -0.0070    -1.1710 n          1 38S      -0.374000
     10 CAO          1.1290    -0.0130    -2.4290 c3         1 38S       0.312500
     11 OAJ          1.9240    -0.6050    -3.4640 os         1 38S      -0.400600
     12 CAH          0.8100     1.4360    -2.8560 c3         1 38S      -0.122400
     13 CAG          1.9310     1.7290    -3.8910 c3         1 38S      -0.122400
     14 CAN          2.1060     0.3320    -4.5380 c3         1 38S       0.135100
     15 CAF          3.5110     0.1940    -5.1300 c3         1 38S       0.142400
     16 OAD          3.6360    -1.0800    -5.7650 oh         1 38S      -0.596800
     17 H1           1.3700    -0.0010     2.0320 hn         1 38S       0.363500
     18 H2           5.8050     1.0010    -0.2440 hc         1 38S       0.049033
     19 H3           5.8010    -0.6730    -0.8160 hc         1 38S       0.049033
     20 H4           5.8120    -0.3320     0.9200 hc         1 38S       0.049033
     21 H5           3.7730    -0.0050    -2.1430 h4         1 38S       0.173000
     22 H6           0.2080    -0.5710    -2.3110 h2         1 38S       0.112700
     23 H7          -0.1660     1.4920    -3.3220 hc         1 38S       0.074700
     24 H8           0.8830     2.1100    -2.0110 hc         1 38S       0.074700
     25 H9           2.8420     2.0440    -3.3970 hc         1 38S       0.063200
     26 H10          1.6020     2.4570    -4.6230 hc         1 38S       0.063200
     27 H11          1.3530     0.1760    -5.3020 h1         1 38S       0.074700
     28 H12          4.2460     0.2770    -4.3390 h1         1 38S       0.028200
     29 H13          3.6750     0.9780    -5.8590 h1         1 38S       0.028200
     30 H14          4.5070    -1.1730    -6.1150 ho         1 38S       0.406000
@<TRIPOS>BOND
     1     1     2 2   
     2     3     2 1   
     3     3     4 1   
     4     5     4 2   
     5     2     9 1   
     6     4     6 1   
     7    12    10 1   
     8    12    13 1   
     9     9    10 1   
    10     9     8 1   
    11     6     8 2   
    12     6     7 1   
    13    10    11 1   
    14    13    14 1   
    15    11    14 1   
    16    14    15 1   
    17    16    15 1   
    18     3    17 1   
    19     7    18 1   
    20     7    19 1   
    21     7    20 1   
    22     8    21 1   
    23    10    22 1   
    24    12    23 1   
    25    12    24 1   
    26    13    25 1   
    27    13    26 1   
    28    14    27 1   
    29    15    28 1   
    30    15    29 1   
    31    16    30 1   
@<TRIPOS>SUBSTRUCTURE
     1 38S         1 TEMP              0 ****  ****    0 ROOT
