@<TRIPOS>MOLECULE
38S
   30    31     1     0     0
SMALL
bcc


@<TRIPOS>ATOM
      1 OAC          0.0000     0.0000     0.0000 o          1 38S      -0.712500
      2 CAM          1.2160     0.0000     0.0000 c          1 38S       0.591500
      3 NAI          1.8790     0.0000     1.1710 ns         1 38S      -0.124500
      4 CAL          3.2270     0.0010     1.1890 c          1 38S       0.620700
      5 OAB          3.8280     0.0010     2.2480 o          1 38S      -0.659500
      6 CAK          3.9380    -0.0000    -0.0360 cc         1 38S      -0.284400
      7 CAA          5.4450    -0.0010    -0.0450 c3         1 38S       0.092100
      8 CAE          3.2470    -0.0020    -1.1960 cd         1 38S      -0.093400
      9 NAP          1.8790    -0.0070    -1.1710 n          1 38S       0.031000
     10 CAO          1.1290    -0.0130    -2.4290 c3         1 38S       0.227500
     11 OAJ          1.9240    -0.6050    -3.4640 os         1 38S      -0.388600
     12 CAH          0.8100     1.4360    -2.8560 c3         1 38S      -0.064400
     13 CAG          1.9310     1.7290    -3.8910 c3         1 38S      -0.064400
     14 CAN          2.1060     0.3320    -4.5380 c3         1 38S       0.170100
     15 CAF          3.5110     0.1940    -5.1300 c3         1 38S       0.218400
     16 OAD          3.6360    -1.0800    -5.7650 oh         1 38S      -0.579800
     17 H1           1.3700    -0.0010     2.0320 hn         1 38S       0.206500
     18 H2           5.8050     1.0010    -0.2440 hc         1 38S       0.012033
     19 H3           5.8010    -0.6730    -0.8160 hc         1 38S       0.012033
     20 H4           5.8120    -0.3320     0.9200 hc         1 38S       0.012033
     21 H5           3.7730    -0.0050    -2.1430 h4         1 38S       0.149000
     22 H6           0.2080    -0.5710    -2.3110 h2         1 38S       0.070700
     23 H7          -0.1660     1.4920    -3.3220 hc         1 38S       0.040200
     24 H8           0.8830     2.1100    -2.0110 hc         1 38S       0.040200
     25 H9           2.8420     2.0440    -3.3970 hc         1 38S       0.031200
     26 H10          1.6020     2.4570    -4.6230 hc         1 38S       0.031200
     27 H11          1.3530     0.1760    -5.3020 h1         1 38S       0.037700
     28 H12          4.2460     0.2770    -4.3390 h1         1 38S      -0.007800
     29 H13          3.6750     0.9780    -5.8590 h1         1 38S      -0.007800
     30 H14          4.5070    -1.1730    -6.1150 ho         1 38S       0.392000
@<TRIPOS>BOND
     1     1     2 2   
     2     2     3 1   
     3     2     9 1   
     4     3     4 1   
     5     3    17 1   
     6     4     5 2   
     7     4     6 1   
     8     6     7 1   
     9     6     8 2   
    10     7    18 1   
    11     7    19 1   
    12     7    20 1   
    13     8     9 1   
    14     8    21 1   
    15     9    10 1   
    16    10    11 1   
    17    10    12 1   
    18    10    22 1   
    19    11    14 1   
    20    12    13 1   
    21    12    23 1   
    22    12    24 1   
    23    13    14 1   
    24    13    25 1   
    25    13    26 1   
    26    14    15 1   
    27    14    27 1   
    28    15    16 1   
    29    15    28 1   
    30    15    29 1   
    31    16    30 1   
@<TRIPOS>SUBSTRUCTURE
     1 38S         1 TEMP              0 ****  ****    0 ROOT
