@<TRIPOS>MOLECULE
molecule
   32    33     1     0     0
SMALL
bcc


@<TRIPOS>ATOM
      1 OAC          0.0000     0.0000     0.0000 o          1 38T      -0.650500
      2 CAM          1.2160     0.0000     0.0000 c          1 38T       0.810500
      3 NAI          1.8800     0.0000     1.1710 ns         1 38T      -0.561500
      4 CAL          3.2280    -0.0000     1.1880 c          1 38T       0.707700
      5 OAB          3.8290    -0.0010     2.2460 o          1 38T      -0.617500
      6 CAK          3.9390     0.0000    -0.0380 cc         1 38T      -0.274400
      7 CAA          5.4450     0.0000    -0.0460 c3         1 38T      -0.013900
      8 CAG          3.2470    -0.0000    -1.1970 cd         1 38T       0.036600
      9 NAR          1.8800    -0.0040    -1.1710 n          1 38T      -0.361000
     10 C1'          1.1290    -0.0110    -2.4290 c3         1 38T       0.309500
     11 O4'          0.1810     1.0780    -2.4540 os         1 38T      -0.378600
     12 C4'         -0.8020     0.7040    -3.4440 c3         1 38T       0.134100
     13 C5'         -2.1030     1.4800    -3.2240 c3         1 38T       0.147400
     14 O5'         -1.8780     2.8670    -3.4780 oh         1 38T      -0.597800
     15 C3'         -1.0330    -0.8080    -3.2190 c3         1 38T       0.103100
     16 O3'         -1.2230    -1.4760    -4.4670 oh         1 38T      -0.575800
     17 C2'          0.2670    -1.2880    -2.5360 c3         1 38T       0.087100
     18 O2'          0.9230    -2.2680    -3.3430 oh         1 38T      -0.579800
     19 H1           1.3710     0.0000     2.0330 hn         1 38T       0.363500
     20 H2           5.8100     0.8780     0.4740 hc         1 38T       0.049033
     21 H3           5.8090    -0.8910     0.4520 hc         1 38T       0.049033
     22 H4           5.8010     0.0130    -1.0690 hc         1 38T       0.049033
     23 H5           3.7730    -0.0020    -2.1440 h4         1 38T       0.169000
     24 H6           1.8020     0.0590    -3.2760 h2         1 38T       0.092700
     25 H7          -0.4160     0.8800    -4.4410 h1         1 38T       0.081700
     26 H8          -2.4320     1.3490    -2.2000 h1         1 38T       0.034700
     27 H9          -2.8640     1.1080    -3.8980 h1         1 38T       0.034700
     28 H10         -2.6940     3.3350    -3.4120 ho         1 38T       0.405000
     29 H11         -1.8820    -0.9650    -2.5650 h1         1 38T       0.058700
     30 H12         -2.0030    -2.0050    -4.4250 ho         1 38T       0.404000
     31 H13          0.0520    -1.6810    -1.5500 h1         1 38T       0.074700
     32 H14          0.9190    -3.0980    -2.8950 ho         1 38T       0.407000
@<TRIPOS>BOND
     1     1     2 2
     2     3     2 1
     3     3     4 1
     4     5     4 2
     5     2     9 1
     6    18    17 1
     7    17    15 1
     8    17    10 1
     9     4     6 1
    10    16    15 1
    11     9    10 1
    12     9     8 1
    13    15    12 1
    14    10    11 1
    15     6     8 2
    16     6     7 1
    17    12    11 1
    18    12    13 1
    19    14    13 1
    20     3    19 1
    21     7    20 1
    22     7    21 1
    23     7    22 1
    24     8    23 1
    25    10    24 1
    26    12    25 1
    27    13    26 1
    28    13    27 1
    29    14    28 1
    30    15    29 1
    31    16    30 1
    32    17    31 1
    33    18    32 1
@<TRIPOS>SUBSTRUCTURE
     1 38T         1 TEMP              0 ****  ****    0 ROOT
