@<TRIPOS>MOLECULE
38U
   22    23     1     0     0
SMALL
bcc


@<TRIPOS>ATOM
      1 C59         0.1220   -0.1220   -0.1200 c3        1 38U     -0.159000
      2 C58         1.5850   -0.0160   -0.1180 c2        1 38U     -0.184000
      3 C57         2.4020    0.0370    1.0720 c2        1 38U      0.034000
      4 C56         1.9570   -0.0090    2.4740 c3        1 38U     -0.123000
      5 C55         3.0820    0.0760    3.4400 c2        1 38U     -0.158000
      6 C54         4.3690    0.1860    3.0470 c2        1 38U     -0.166000
      7 C53         4.7890    0.2410    1.6620 c1        1 38U     -0.129000
      8 C52         3.7600    0.1510    0.7260 c2        1 38U     -0.222000
      9 C51         3.8500    0.1710   -0.7740 c3        1 38U     -0.107000
     10 C50         2.4150    0.0610   -1.2210 c2        1 38U     -0.006000
     11 C2          2.0410    0.0040   -2.6830 c2        1 38U      0.353000
     12 O3          0.9690    0.5610   -3.0490 o         1 38U     -0.549000
     13 H4         -0.2640    0.0280   -1.1640 hc        1 38U      0.078667
     14 H5         -0.3310    0.6530    0.5490 hc        1 38U      0.078667
     15 H6         -0.2030   -1.1280    0.2470 hc        1 38U      0.078667
     16 H7          1.2380    0.8390    2.6600 hc        1 38U      0.119000
     17 H8          1.3860   -0.9650    2.6480 hc        1 38U      0.119000
     18 H9          2.7910    0.0430    4.5000 ha        1 38U      0.101000
     19 H10         5.1760    0.2440    3.7960 ha        1 38U      0.116000
     20 H11         4.4410   -0.6910   -1.1780 hc        1 38U      0.137000
     21 H12         4.3170    1.1150   -1.1500 hc        1 38U      0.137000
     22 OXT         2.8320   -0.6060   -3.4550 o         1 38U     -0.549000
@<TRIPOS>BOND
     1    1    2 1   
     2    1   13 1   
     3    1   14 1   
     4    1   15 1   
     5    2    3 1   
     6    2   10 1   
     7    3    4 1   
     8    3    8 1   
     9    4    5 1   
    10    4   16 1   
    11    4   17 1   
    12    5    6 1   
    13    5   18 1   
    14    6    7 1   
    15    6   19 1   
    16    7    8 1   
    17    8    9 1   
    18    9   10 1   
    19    9   20 1   
    20    9   21 1   
    21   10   11 1   
    22   11   12 1   
    23   11   22 1   
@<TRIPOS>SUBSTRUCTURE
     1 38U         1 TEMP              0 ****  ****    0 ROOT
