@<TRIPOS>MOLECULE
molecule
   22    23     1     0     0
SMALL
bcc


@<TRIPOS>ATOM
      1 C59          0.0000     0.0000     0.0000 c3         1 38U      -0.011900
      2 C58          1.5070     0.0000     0.0000 ce         1 38U      -0.122400
      3 C57          2.3410     0.0000     1.2080 ca         1 38U      -0.030800
      4 C56          2.0100    -0.0030     2.5700 ca         1 38U      -0.132000
      5 C55          3.0100    -0.0030     3.5190 ca         1 38U      -0.143000
      6 C54          4.3400    -0.0020     3.1350 ca         1 38U      -0.161000
      7 C53          4.6770    -0.0010     1.7910 ca         1 38U      -0.115000
      8 C52          3.6890     0.0010     0.8350 ca         1 38U      -0.109300
      9 C51          3.7190     0.0020    -0.6750 c3         1 38U      -0.002900
     10 C50          2.2710    -0.0040    -1.1080 cf         1 38U      -0.098400
     11 C2           1.7860    -0.0060    -2.4870 c          1 38U       0.888800
     12 O3           0.5900    -0.0110    -2.7110 o          1 38U      -0.834800
     13 H4          -0.3610    -0.8900    -0.5010 hc         1 38U       0.034700
     14 H5          -0.3610     0.0110     1.0210 hc         1 38U       0.034700
     15 H6          -0.3610     0.8790    -0.5200 hc         1 38U       0.034700
     16 H7           0.9710    -0.0030     2.8760 ha         1 38U       0.120000
     17 H8           2.7530    -0.0030     4.5720 ha         1 38U       0.108000
     18 H9           5.1190    -0.0020     3.8870 ha         1 38U       0.109000
     19 H10          5.7190    -0.0010     1.4940 ha         1 38U       0.115000
     20 H11          4.2210    -0.8860    -1.0390 hc         1 38U       0.075700
     21 H12          4.2130     0.8950    -1.0380 hc         1 38U       0.075700
     22 OXT          2.6640    -0.0020    -3.5110 o          1 38U      -0.834800
@<TRIPOS>BOND
     1    12    11 1   
     2    11    10 1   
     3    10     9 1   
     4    10     2 2   
     5     9     8 1   
     6     1     2 1   
     7     2     3 1   
     8     8     3 ar  
     9     8     7 ar  
    10     3     4 ar  
    11     7     6 ar  
    12     4     5 ar  
    13     6     5 ar  
    14     1    13 1   
    15     1    14 1   
    16     1    15 1   
    17     4    16 1   
    18     5    17 1   
    19     6    18 1   
    20     7    19 1   
    21     9    20 1   
    22     9    21 1   
    23    11    22 1   
@<TRIPOS>SUBSTRUCTURE
     1 38U         1 TEMP              0 ****  ****    0 ROOT
