@<TRIPOS>MOLECULE
38W
   50    54     1     0     0
SMALL
bcc


@<TRIPOS>ATOM
      1 C01        -0.2480    0.5980   -0.3380 c3        1 38W     -0.107767
      2 C02         1.2250    0.1520   -0.2430 c3        1 38W      0.217200
      3 C03         1.3840   -0.6590    1.0510 c3        1 38W     -0.107767
      4 C04         1.5080   -0.7750   -1.4340 c3        1 38W     -0.107767
      5 N05         2.0760    1.3560   -0.2300 nh        1 38W     -0.784900
      6 C06         3.4500    1.2120   -0.3200 cc        1 38W      0.664300
      7 N07         4.3500    0.2920    0.1410 nd        1 38W     -0.392000
      8 N08         5.5700    0.7310   -0.1080 nd        1 38W     -0.335000
      9 C09         5.5160    1.9270   -0.7270 cc        1 38W      0.502900
     10 O10         4.1620    2.2950   -0.9040 os        1 38W     -0.426800
     11 C11         6.5360    2.8360   -1.2040 ca        1 38W     -0.159500
     12 C12         6.1500    4.0710   -1.7720 ca        1 38W     -0.086000
     13 C13         7.0900    4.9720   -2.2390 ca        1 38W     -0.151000
     14 C14         8.4450    4.6200   -2.1330 ca        1 38W     -0.045200
     15 N15         9.5930    5.3220   -2.5150 na        1 38W     -0.187400
     16 C16        10.7070    4.5530   -2.1990 cc        1 38W     -0.044100
     17 C17        10.3060    3.3450   -1.6110 cd        1 38W     -0.209000
     18 C18        11.2200    2.3000   -1.1570 ca        1 38W      0.751800
     19 N19        10.6800    1.1540   -0.6220 nb        1 38W     -0.701000
     20 C20        11.5520    0.2160   -0.2140 ca        1 38W      0.439200
     21 C21        12.9440    0.3690   -0.3180 ca        1 38W     -0.378600
     22 C22        13.4180    1.5780   -0.8810 ca        1 38W      0.488600
     23 N23        12.5660    2.5440   -1.3020 nb        1 38W     -0.725000
     24 C24        14.8800    1.7700   -1.0040 cx        1 38W     -0.201000
     25 C25        15.4690    2.5160   -2.1780 cx        1 38W     -0.108900
     26 C26        15.5020    3.1330   -0.8150 cx        1 38W     -0.108900
     27 C27         8.8550    3.3580   -1.5540 ca        1 38W     -0.064800
     28 C28         7.8810    2.4730   -1.0910 ca        1 38W     -0.022000
     29 H1         -0.8970   -0.3100   -0.3270 hc        1 38W      0.049144
     30 H2         -0.4380    1.1560   -1.2850 hc        1 38W      0.049144
     31 H3         -0.5230    1.2440    0.5290 hc        1 38W      0.049144
     32 H4          0.6120   -1.4660    1.0630 hc        1 38W      0.049144
     33 H5          1.2380   -0.0090    1.9460 hc        1 38W      0.049144
     34 H6          2.3920   -1.1340    1.1100 hc        1 38W      0.049144
     35 H7          2.5550   -1.1620   -1.3970 hc        1 38W      0.049144
     36 H8          0.8100   -1.6450   -1.3950 hc        1 38W      0.049144
     37 H9          1.3530   -0.2390   -2.4000 hc        1 38W      0.049144
     38 H10         1.7370    2.0750   -0.8420 hn        1 38W      0.414800
     39 H11         5.0780    4.3160   -1.8390 ha        1 38W      0.145000
     40 H12         6.7860    5.9310   -2.6790 ha        1 38W      0.136000
     41 H13         9.6030    6.2130   -2.9330 hn        1 38W      0.303700
     42 H14        11.7180    4.9110   -2.4120 h4        1 38W      0.185000
     43 H15        11.1060   -0.7000    0.2150 h4        1 38W      0.029100
     44 H16        13.6320   -0.4120    0.0230 ha        1 38W      0.152000
     45 H17        15.4410    0.8930   -0.6200 hc        1 38W      0.086700
     46 H18        14.7910    2.9360   -2.9420 hc        1 38W      0.077700
     47 H19        16.4050    2.1300   -2.6200 hc        1 38W      0.077700
     48 H20        16.4620    3.1950   -0.2720 hc        1 38W      0.077700
     49 H21        14.8470    3.9970   -0.6000 hc        1 38W      0.077700
     50 H22         8.1640    1.5060   -0.6430 ha        1 38W      0.183000
@<TRIPOS>BOND
     1    1    2 1   
     2    1   29 1   
     3    1   30 1   
     4    1   31 1   
     5    2    3 1   
     6    2    4 1   
     7    2    5 1   
     8    3   32 1   
     9    3   33 1   
    10    3   34 1   
    11    4   35 1   
    12    4   36 1   
    13    4   37 1   
    14    5    6 1   
    15    5   38 1   
    16    6    7 2   
    17    6   10 1   
    18    7    8 1   
    19    8    9 2   
    20    9   10 1   
    21    9   11 1   
    22   11   12 ar  
    23   11   28 ar  
    24   12   13 ar  
    25   12   39 1   
    26   13   14 ar  
    27   13   40 1   
    28   14   15 1   
    29   14   27 ar  
    30   15   16 1   
    31   15   41 1   
    32   16   17 2   
    33   16   42 1   
    34   17   18 1   
    35   17   27 1   
    36   18   19 ar  
    37   18   23 ar  
    38   19   20 ar  
    39   20   21 ar  
    40   20   43 1   
    41   21   22 ar  
    42   21   44 1   
    43   22   23 ar  
    44   22   24 1   
    45   24   25 1   
    46   24   26 1   
    47   24   45 1   
    48   25   26 1   
    49   25   46 1   
    50   25   47 1   
    51   26   48 1   
    52   26   49 1   
    53   27   28 ar  
    54   28   50 1   
@<TRIPOS>SUBSTRUCTURE
     1 38W         1 TEMP              0 ****  ****    0 ROOT
