@<TRIPOS>MOLECULE
38Z
   77    83     1     0     0
SMALL
bcc


@<TRIPOS>ATOM
      1 O1           0.0000     0.0000     0.0000 o          1 38Z      -0.638100
      2 C20          1.2130     0.0000     0.0000 c          1 38Z       0.570100
      3 N5           1.8870     0.0000     1.1680 ns         1 38Z      -0.026100
      4 C21          1.1900     0.0930     2.3780 ca         1 38Z      -0.140400
      5 C26         -0.0250    -0.5160     2.4950 ca         1 38Z      -0.025000
      6 C25         -0.7310    -0.4260     3.7090 ca         1 38Z      -0.163000
      7 C27         -1.9580    -0.9090     4.1700 cc         1 38Z      -0.198300
      8 C28         -2.9180    -1.7240     3.4030 ca         1 38Z      -0.001800
      9 C32         -3.2450    -1.3970     2.0790 ca         1 38Z      -0.211300
     10 C31         -4.1480    -2.1860     1.4000 ca         1 38Z       0.408200
     11 N6          -4.7020    -3.2350     1.9790 nb         1 38Z      -0.581000
     12 C30         -4.4220    -3.5790     3.2230 ca         1 38Z       0.408200
     13 C29         -3.5260    -2.8500     3.9740 ca         1 38Z      -0.211300
     14 N7          -2.1040    -0.4930     5.4470 na         1 38Z       0.560800
     15 N8          -0.9880     0.2570     5.8320 nc         1 38Z      -0.436400
     16 C24         -0.1360     0.3250     4.8230 ca         1 38Z      -0.010000
     17 C23          1.1240     0.9320     4.6340 ca         1 38Z      -0.065000
     18 C22          1.7590     0.8050     3.4430 ca         1 38Z      -0.091000
     19 C19          1.9670    -0.0040    -1.3050 c3         1 38Z      -0.147700
     20 C            2.8410     1.2710    -1.4380 c3         1 38Z      -0.025400
     21 C18          0.9940     0.1150    -2.4970 c3         1 38Z       0.152800
     22 N            1.6270     1.0030    -3.4900 n3         1 38Z      -0.510600
     23 C1           2.9500     1.4160    -2.9770 c3         1 38Z       0.149800
     24 C2           1.7520     0.3330    -4.7920 c3         1 38Z       0.079800
     25 C3           2.1700     1.3360    -5.8350 c          1 38Z       0.586100
     26 O            2.3460     2.4950    -5.5250 o          1 38Z      -0.627100
     27 N1           2.3490     0.9450    -7.1120 n          1 38Z      -0.168800
     28 C7           2.1350    -0.4550    -7.5100 c3         1 38Z       0.050000
     29 C6           3.3700    -0.9360    -8.2780 c3         1 38Z       0.117300
     30 N2           3.6460    -0.0110    -9.3850 nh         1 38Z      -0.356000
     31 C5           3.9730     1.3320    -8.8890 c3         1 38Z       0.117300
     32 C4           2.7560     1.9080    -8.1470 c3         1 38Z       0.050000
     33 C8           4.6610    -0.5010   -10.2050 ca         1 38Z       0.036600
     34 C13          5.2580    -1.7240    -9.9160 ca         1 38Z      -0.165500
     35 C12          6.2620    -2.2100   -10.7250 ca         1 38Z      -0.030000
     36 C11          6.6790    -1.4750   -11.8340 cp         1 38Z      -0.193500
     37 C10          6.0800    -0.2500   -12.1230 ca         1 38Z      -0.030000
     38 C9           5.0720     0.2300   -11.3140 ca         1 38Z      -0.165500
     39 C14          7.7590    -1.9960   -12.7050 cp         1 38Z       0.672500
     40 N4           8.1430    -1.2840   -13.7560 nb         1 38Z      -0.623000
     41 C17          9.1050    -1.7200   -14.5520 ca         1 38Z       0.446200
     42 C16          9.7110    -2.9360   -14.2780 ca         1 38Z      -0.358600
     43 C15          9.2850    -3.6550   -13.1710 ca         1 38Z       0.446200
     44 N3           8.3230    -3.1610   -12.4120 nb         1 38Z      -0.623000
     45 H1           2.8820    -0.1060     1.1710 hn         1 38Z       0.165500
     46 H2          -0.3790    -1.1740     1.7110 ha         1 38Z       0.138000
     47 H3          -2.7940    -0.5370     1.5980 ha         1 38Z       0.125500
     48 H4          -4.4070    -1.9420     0.3770 h4         1 38Z      -0.016900
     49 H5          -4.8990    -4.4490     3.6560 h4         1 38Z      -0.016900
     50 H6          -3.3020    -3.1380     4.9940 ha         1 38Z       0.125500
     51 H7          -2.8930    -0.6910     6.0300 hn         1 38Z       0.142700
     52 H8           1.5870     1.4880     5.4410 ha         1 38Z       0.113000
     53 H9           2.7300     1.2650     3.3110 ha         1 38Z       0.102000
     54 H10          2.5760    -0.8950    -1.3990 hc         1 38Z       0.038700
     55 H11          2.3410     2.1280    -1.0050 hc         1 38Z       0.026700
     56 H12          3.8170     1.1170    -0.9950 hc         1 38Z       0.026700
     57 H13          0.8250    -0.8620    -2.9320 h1         1 38Z       0.035200
     58 H14          0.0570     0.5440    -2.1640 h1         1 38Z       0.035200
     59 H16          3.1510     2.4460    -3.2430 h1         1 38Z       0.025700
     60 H17          3.7230     0.7620    -3.3620 h1         1 38Z       0.025700
     61 H18          2.4980    -0.4510    -4.7240 h1         1 38Z       0.023700
     62 H19          0.7980    -0.1000    -5.0680 h1         1 38Z       0.023700
     63 H20          1.2620    -0.5210    -8.1490 h1         1 38Z       0.036200
     64 H21          1.9940    -1.0660    -6.6280 h1         1 38Z       0.036200
     65 H22          4.2230    -0.9620    -7.6100 h1         1 38Z       0.027450
     66 H23          3.1850    -1.9270    -8.6750 h1         1 38Z       0.027450
     67 H24          4.2240     1.9740    -9.7240 h1         1 38Z       0.027450
     68 H25          4.8140     1.2700    -8.2080 h1         1 38Z       0.027450
     69 H26          3.0250     2.8490    -7.6820 h1         1 38Z       0.036200
     70 H27          1.9420     2.0590    -8.8450 h1         1 38Z       0.036200
     71 H28          4.9330    -2.2940    -9.0540 ha         1 38Z       0.119500
     72 H29          6.7260    -3.1620   -10.4990 ha         1 38Z       0.123000
     73 H30          6.4010     0.3210   -12.9850 ha         1 38Z       0.123000
     74 H31          4.6050     1.1820   -11.5380 ha         1 38Z       0.119500
     75 H32          9.4150    -1.1340   -15.4090 h4         1 38Z      -0.015900
     76 H33         10.5000    -3.3180   -14.9150 ha         1 38Z       0.123000
     77 H34          9.7400    -4.6080   -12.9280 h4         1 38Z      -0.015900
@<TRIPOS>BOND
     1     1     2 2   
     2     2     3 1   
     3     2    19 1   
     4     3     4 1   
     5     3    45 1   
     6     4     5 ar  
     7     4    18 ar  
     8     5     6 ar  
     9     5    46 1   
    10     6     7 2   
    11     6    16 ar  
    12     7     8 1   
    13     7    14 1   
    14     8     9 ar  
    15     8    13 ar  
    16     9    10 ar  
    17     9    47 1   
    18    10    11 ar  
    19    10    48 1   
    20    11    12 ar  
    21    12    13 ar  
    22    12    49 1   
    23    13    50 1   
    24    14    15 1   
    25    14    51 1   
    26    15    16 2   
    27    16    17 ar  
    28    17    18 ar  
    29    17    52 1   
    30    18    53 1   
    31    19    20 1   
    32    19    21 1   
    33    19    54 1   
    34    20    23 1   
    35    20    55 1   
    36    20    56 1   
    37    21    22 1   
    38    21    57 1   
    39    21    58 1   
    40    22    23 1   
    41    22    24 1   
    42    23    59 1   
    43    23    60 1   
    44    24    25 1   
    45    24    61 1   
    46    24    62 1   
    47    25    26 2   
    48    25    27 1   
    49    27    28 1   
    50    27    32 1   
    51    28    29 1   
    52    28    63 1   
    53    28    64 1   
    54    29    30 1   
    55    29    65 1   
    56    29    66 1   
    57    30    31 1   
    58    30    33 1   
    59    31    32 1   
    60    31    67 1   
    61    31    68 1   
    62    32    69 1   
    63    32    70 1   
    64    33    34 ar  
    65    33    38 ar  
    66    34    35 ar  
    67    34    71 1   
    68    35    36 ar  
    69    35    72 1   
    70    36    37 ar  
    71    36    39 1   
    72    37    38 ar  
    73    37    73 1   
    74    38    74 1   
    75    39    40 ar  
    76    39    44 ar  
    77    40    41 ar  
    78    41    42 ar  
    79    41    75 1   
    80    42    43 ar  
    81    42    76 1   
    82    43    44 ar  
    83    43    77 1   
@<TRIPOS>SUBSTRUCTURE
     1 38Z         1 TEMP              0 ****  ****    0 ROOT
