@<TRIPOS>MOLECULE
molecule
   54    57     1     0     0
SMALL
bcc


@<TRIPOS>ATOM
      1 O1           0.0000     0.0000     0.0000 o          1 390      -0.599100
      2 C14          1.2160     0.0000     0.0000 c          1 390       0.704700
      3 N3           1.8900     0.0000     1.1680 ns         1 390      -0.579900
      4 C15          1.1570     0.0000     2.4360 c3         1 390       0.176000
      5 C17          2.0200    -0.6000     3.5150 ca         1 390      -0.087300
      6 C22          1.4630    -1.4440     4.4570 ca         1 390      -0.112000
      7 C21          2.2560    -1.9950     5.4470 ca         1 390       0.030400
      8 Cl1          1.5560    -3.0550     6.6310 cl         1 390      -0.105400
      9 C20          3.6070    -1.7020     5.4940 ca         1 390      -0.117000
     10 C19          4.1630    -0.8580     4.5520 ca         1 390      -0.121000
     11 C18          3.3720    -0.3120     3.5600 ca         1 390      -0.107000
     12 C16          0.7920     1.4370     2.8150 c3         1 390       0.126400
     13 O            1.9870     2.1800     3.0680 oh         1 390      -0.617800
     14 C13          1.9510    -0.0060    -1.2700 cc         1 390      -0.207900
     15 C12          1.3930    -0.0120    -2.5170 cd         1 390      -0.064000
     16 N4           3.3200     0.0000    -1.4110 na         1 390      -0.142100
     17 C23          3.6270    -0.0080    -2.7230 cc         1 390      -0.108300
     18 C11          2.4550    -0.0160    -3.4440 cd         1 390      -0.253500
     19 C10          2.3320    -0.0250    -4.9210 ca         1 390       0.603800
     20 C1           3.2540     0.6630    -5.7160 ca         1 390      -0.383900
     21 C            4.3910     1.4290    -5.0890 c3         1 390      -0.032800
     22 N2           1.3440    -0.6940    -5.5140 nb         1 390      -0.777000
     23 C3           1.2330    -0.7040    -6.8320 ca         1 390       0.935900
     24 N            2.0900    -0.0560    -7.6080 nb         1 390      -0.798000
     25 C2           3.0980     0.6250    -7.0890 ca         1 390       0.496200
     26 N1           0.1940    -1.4110    -7.4160 nu         1 390      -0.745300
     27 C4          -0.0140    -1.3330    -8.7980 ca         1 390       0.162600
     28 C9          -0.6640    -2.3660    -9.4630 ca         1 390       0.003400
     29 Cl          -1.2200    -3.7540    -8.5800 cl         1 390      -0.101400
     30 C8          -0.8680    -2.2870   -10.8280 ca         1 390      -0.142000
     31 C7          -0.4260    -1.1800   -11.5320 ca         1 390       0.112900
     32 F           -0.6280    -1.1060   -12.8660 f          1 390      -0.139900
     33 C6           0.2210    -0.1510   -10.8710 ca         1 390      -0.147000
     34 C5           0.4240    -0.2220    -9.5070 ca         1 390      -0.110000
     35 H1           2.8900    -0.0390     1.1680 hn         1 390       0.311500
     36 H2           0.2520    -0.5860     2.3300 h1         1 390       0.095700
     37 H3           0.4100    -1.6950     4.4040 ha         1 390       0.147000
     38 H4           4.2280    -2.1320     6.2710 ha         1 390       0.145000
     39 H5           5.2220    -0.6300     4.5870 ha         1 390       0.137000
     40 H6           3.8090     0.3500     2.8220 ha         1 390       0.136000
     41 H7           0.1750     1.4310     3.7050 h1         1 390       0.040200
     42 H8           0.2460     1.8980     2.0010 h1         1 390       0.040200
     43 H9           1.7650     3.0760     3.2600 ho         1 390       0.407000
     44 H10          0.3350    -0.0160    -2.7490 ha         1 390       0.183000
     45 H11          3.9810     0.0070    -0.6600 hn         1 390       0.297700
     46 H12          4.6280    -0.0070    -3.1390 h4         1 390       0.179000
     47 H13          4.7830     2.1420    -5.8030 hc         1 390       0.042700
     48 H14          5.1740     0.7390    -4.7990 hc         1 390       0.042700
     49 H15          4.0320     1.9560    -4.2130 hc         1 390       0.042700
     50 H16          3.7940     1.1490    -7.7330 h4         1 390       0.030100
     51 H17         -0.4280    -1.9480    -6.8460 hn         1 390       0.478800
     52 H18         -1.3750    -3.0920   -11.3470 ha         1 390       0.159000
     53 H19          0.5640     0.7160   -11.4240 ha         1 390       0.149000
     54 H20          0.9310     0.5850    -8.9910 ha         1 390       0.185000
@<TRIPOS>BOND
     1    32    31 1   
     2    31    30 ar  
     3    31    33 ar  
     4    30    28 ar  
     5    33    34 ar  
     6    28    29 1   
     7    28    27 ar  
     8    34    27 ar  
     9    27    26 1   
    10    10    11 ar  
    11    10     9 ar  
    12    26    23 1   
    13    11     5 ar  
    14     9     7 ar  
    15    12    13 1   
    16    12     4 1   
    17    17    16 1   
    18    17    18 2   
    19     5     4 1   
    20     5     6 ar  
    21     7     6 ar  
    22     7     8 1   
    23    16    14 1   
    24    22    23 ar  
    25    22    19 ar  
    26     3     4 1   
    27     3     2 1   
    28    23    24 ar  
    29    18    19 1   
    30    18    15 1   
    31    14     2 1   
    32    14    15 2   
    33    19    20 ar  
    34     2     1 2   
    35    24    25 ar  
    36    20    25 ar  
    37    20    21 1   
    38     3    35 1   
    39     4    36 1   
    40     6    37 1   
    41     9    38 1   
    42    10    39 1   
    43    11    40 1   
    44    12    41 1   
    45    12    42 1   
    46    13    43 1   
    47    15    44 1   
    48    16    45 1   
    49    17    46 1   
    50    21    47 1   
    51    21    48 1   
    52    21    49 1   
    53    25    50 1   
    54    26    51 1   
    55    30    52 1   
    56    33    53 1   
    57    34    54 1   
@<TRIPOS>SUBSTRUCTURE
     1 390         1 TEMP              0 ****  ****    0 ROOT
