@<TRIPOS>MOLECULE
390
   54    57     1     0     0
SMALL
bcc


@<TRIPOS>ATOM
      1 O1           0.0000     0.0000     0.0000 o          1 390      -0.641100
      2 C14          1.2160     0.0000     0.0000 c          1 390       0.639700
      3 N3           1.8900     0.0000     1.1680 ns         1 390      -0.203900
      4 C15          1.1570     0.0000     2.4360 c3         1 390       0.081000
      5 C17          2.0200    -0.6000     3.5150 ca         1 390      -0.094300
      6 C22          1.4630    -1.4440     4.4570 ca         1 390      -0.085000
      7 C21          2.2560    -1.9950     5.4470 ca         1 390      -0.032600
      8 Cl1          1.5560    -3.0550     6.6310 cl         1 390      -0.022400
      9 C20          3.6070    -1.7020     5.4940 ca         1 390      -0.095000
     10 C19          4.1630    -0.8580     4.5520 ca         1 390      -0.088000
     11 C18          3.3720    -0.3120     3.5600 ca         1 390      -0.088000
     12 C16          0.7920     1.4370     2.8150 c3         1 390       0.206400
     13 O            1.9870     2.1800     3.0680 oh         1 390      -0.602800
     14 C13          1.9510    -0.0060    -1.2700 cc         1 390      -0.421900
     15 C12          1.3930    -0.0120    -2.5170 cd         1 390      -0.024000
     16 N4           3.3200     0.0000    -1.4110 na         1 390       0.435900
     17 C23          3.6270    -0.0080    -2.7230 cc         1 390      -0.309300
     18 C11          2.4550    -0.0160    -3.4440 cd         1 390      -0.257500
     19 C10          2.3320    -0.0250    -4.9210 ca         1 390       0.574800
     20 C1           3.2540     0.6630    -5.7160 ca         1 390      -0.389900
     21 C            4.3910     1.4290    -5.0890 c3         1 390       0.078200
     22 N2           1.3440    -0.6940    -5.5140 nb         1 390      -0.669000
     23 C3           1.2330    -0.7040    -6.8320 ca         1 390       0.697900
     24 N            2.0900    -0.0560    -7.6080 nb         1 390      -0.692000
     25 C2           3.0980     0.6250    -7.0890 ca         1 390       0.483200
     26 N1           0.1940    -1.4110    -7.4160 nu         1 390      -0.282300
     27 C4          -0.0140    -1.3330    -8.7980 ca         1 390       0.005600
     28 C9          -0.6640    -2.3660    -9.4630 ca         1 390      -0.060600
     29 Cl          -1.2200    -3.7540    -8.5800 cl         1 390      -0.016400
     30 C8          -0.8680    -2.2870   -10.8280 ca         1 390      -0.109000
     31 C7          -0.4260    -1.1800   -11.5320 ca         1 390       0.084900
     32 F           -0.6280    -1.1060   -12.8660 f          1 390      -0.128900
     33 C6           0.2210    -0.1510   -10.8710 ca         1 390      -0.106000
     34 C5           0.4240    -0.2220    -9.5070 ca         1 390      -0.102000
     35 H1           2.8900    -0.0390     1.1680 hn         1 390       0.173500
     36 H2           0.2520    -0.5860     2.3300 h1         1 390       0.066700
     37 H3           0.4100    -1.6950     4.4040 ha         1 390       0.120000
     38 H4           4.2280    -2.1320     6.2710 ha         1 390       0.115000
     39 H5           5.2220    -0.6300     4.5870 ha         1 390       0.106000
     40 H6           3.8090     0.3500     2.8220 ha         1 390       0.111000
     41 H7           0.1750     1.4310     3.7050 h1         1 390       0.004700
     42 H8           0.2460     1.8980     2.0010 h1         1 390       0.004700
     43 H9           1.7650     3.0760     3.2600 ho         1 390       0.395000
     44 H10          0.3350    -0.0160    -2.7490 ha         1 390       0.149000
     45 H11          3.9810     0.0070    -0.6600 hn         1 390       0.106700
     46 H12          4.6280    -0.0070    -3.1390 h4         1 390       0.159000
     47 H13          4.7830     2.1420    -5.8030 hc         1 390       0.009033
     48 H14          5.1740     0.7390    -4.7990 hc         1 390       0.009033
     49 H15          4.0320     1.9560    -4.2130 hc         1 390       0.009033
     50 H16          3.7940     1.1490    -7.7330 h4         1 390      -0.014900
     51 H17         -0.4280    -1.9480    -6.8460 hn         1 390       0.302800
     52 H18         -1.3750    -3.0920   -11.3470 ha         1 390       0.128000
     53 H19          0.5640     0.7160   -11.4240 ha         1 390       0.118000
     54 H20          0.9310     0.5850    -8.9910 ha         1 390       0.159000
@<TRIPOS>BOND
     1     1     2 2   
     2     2     3 1   
     3     2    14 1   
     4     3     4 1   
     5     3    35 1   
     6     4     5 1   
     7     4    12 1   
     8     4    36 1   
     9     5     6 ar  
    10     5    11 ar  
    11     6     7 ar  
    12     6    37 1   
    13     7     8 1   
    14     7     9 ar  
    15     9    10 ar  
    16     9    38 1   
    17    10    11 ar  
    18    10    39 1   
    19    11    40 1   
    20    12    13 1   
    21    12    41 1   
    22    12    42 1   
    23    13    43 1   
    24    14    15 2   
    25    14    16 1   
    26    15    18 1   
    27    15    44 1   
    28    16    17 1   
    29    16    45 1   
    30    17    18 2   
    31    17    46 1   
    32    18    19 1   
    33    19    20 ar  
    34    19    22 ar  
    35    20    21 1   
    36    20    25 ar  
    37    21    47 1   
    38    21    48 1   
    39    21    49 1   
    40    22    23 ar  
    41    23    24 ar  
    42    23    26 1   
    43    24    25 ar  
    44    25    50 1   
    45    26    27 1   
    46    26    51 1   
    47    27    28 ar  
    48    27    34 ar  
    49    28    29 1   
    50    28    30 ar  
    51    30    31 ar  
    52    30    52 1   
    53    31    32 1   
    54    31    33 ar  
    55    33    34 ar  
    56    33    53 1   
    57    34    54 1   
@<TRIPOS>SUBSTRUCTURE
     1 390         1 TEMP              0 ****  ****    0 ROOT
