@<TRIPOS>MOLECULE
391
   45    49     1     0     0
SMALL
bcc


@<TRIPOS>ATOM
      1 C36        -0.0140   -0.0190   -0.2550 ca        1 391     -0.101000
      2 C35         1.3210    0.3200   -0.3170 ca        1 391      0.064100
      3 O39         2.3020    0.1530    0.6540 os        1 391     -0.330900
      4 C38         3.5340    0.6680    0.0960 c3        1 391      0.320200
      5 O37         3.2480    1.1530   -1.2380 os        1 391     -0.330900
      6 C34         1.8960    0.9280   -1.4660 ca        1 391      0.058100
      7 C33         1.1550    1.2150   -2.5950 ca        1 391     -0.108000
      8 C32        -0.2070    0.8690   -2.5580 ca        1 391     -0.126000
      9 C31        -0.7590    0.2800   -1.4170 ca        1 391      0.091100
     10 O28        -2.1480    0.1000   -1.4150 os        1 391     -0.358400
     11 C23        -2.6370   -1.1920   -1.3580 ca        1 391      0.681600
     12 N22        -1.8130   -2.2680   -1.2880 nb        1 391     -0.790000
     13 C24        -4.0520   -1.2920   -1.3830 ca        1 391     -0.411600
     14 C25        -4.5950   -2.5900   -1.3330 ca        1 391      0.488600
     15 C27        -6.0810   -2.7550   -1.3580 c3        1 391     -0.156400
     16 N26        -3.8190   -3.7060   -1.2620 nb        1 391     -0.711000
     17 C21        -2.4680   -3.4750   -1.2420 ca        1 391      0.874300
     18 O17        -1.7390   -4.6590   -1.1630 os        1 391     -0.333400
     19 C14        -0.3470   -4.5440   -1.0850 ca        1 391      0.088100
     20 C15         0.4080   -4.1730   -2.2010 ca        1 391     -0.097500
     21 C16         1.7960   -4.1970   -2.1230 ca        1 391     -0.139000
     22 C13         0.2650   -4.9390    0.1100 ca        1 391     -0.097500
     23 C12         1.6530   -4.9750    0.1840 ca        1 391     -0.139000
     24 C11         2.4370   -4.5970   -0.9290 ca        1 391      0.017800
     25 N3          3.8400   -4.6130   -0.8440 na        1 391     -0.143000
     26 C4          4.7450   -4.7730   -1.9060 cc        1 391     -0.244600
     27 C5          6.0270   -4.6970   -1.3390 cd        1 391      0.294200
     28 NFE         5.9330   -4.4880    0.0400 nd        1 391     -0.663000
     29 C2          4.6180   -4.4410    0.3200 cc        1 391      0.400400
     30 H36        -0.4710   -0.4960    0.6200 ha        1 391      0.171000
     31 H381        4.2700   -0.1710    0.0200 h2        1 391      0.077700
     32 H382        3.8770    1.5280    0.7220 h2        1 391      0.077700
     33 H33         1.6010    1.6850   -3.4810 ha        1 391      0.161000
     34 H32        -0.8460    1.0740   -3.4290 ha        1 391      0.155000
     35 H24        -4.6750   -0.3930   -1.4370 ha        1 391      0.172000
     36 H271       -6.5780   -1.7570   -1.4220 hc        1 391      0.063700
     37 H272       -6.4290   -3.2740   -0.4310 hc        1 391      0.063700
     38 H273       -6.3880   -3.3700   -2.2410 hc        1 391      0.063700
     39 H15        -0.0930   -3.8520   -3.1260 ha        1 391      0.156500
     40 H16         2.3890   -3.8930   -3.0000 ha        1 391      0.147500
     41 H13        -0.3510   -5.2310    0.9740 ha        1 391      0.156500
     42 H12         2.1310   -5.3020    1.1210 ha        1 391      0.147500
     43 H4          4.4190   -4.9380   -2.9300 h4        1 391      0.181000
     44 H5          6.9920   -4.7790   -1.8360 h4        1 391      0.045100
     45 H2          4.1730   -4.2800    1.3070 h5        1 391      0.065100
@<TRIPOS>BOND
     1    1    2 ar  
     2    1    9 ar  
     3    1   30 1   
     4    2    3 1   
     5    2    6 ar  
     6    3    4 1   
     7    4    5 1   
     8    4   31 1   
     9    4   32 1   
    10    5    6 1   
    11    6    7 ar  
    12    7    8 ar  
    13    7   33 1   
    14    8    9 ar  
    15    8   34 1   
    16    9   10 1   
    17   10   11 1   
    18   11   12 ar  
    19   11   13 ar  
    20   12   17 ar  
    21   13   14 ar  
    22   13   35 1   
    23   14   15 1   
    24   14   16 ar  
    25   15   36 1   
    26   15   37 1   
    27   15   38 1   
    28   16   17 ar  
    29   17   18 1   
    30   18   19 1   
    31   19   20 ar  
    32   19   22 ar  
    33   20   21 ar  
    34   20   39 1   
    35   21   24 ar  
    36   21   40 1   
    37   22   23 ar  
    38   22   41 1   
    39   23   24 ar  
    40   23   42 1   
    41   24   25 1   
    42   25   26 1   
    43   25   29 1   
    44   26   27 2   
    45   26   43 1   
    46   27   28 1   
    47   27   44 1   
    48   28   29 2   
    49   29   45 1   
@<TRIPOS>SUBSTRUCTURE
     1 391         1 TEMP              0 ****  ****    0 ROOT
