@<TRIPOS>MOLECULE
molecule
   45    49     1     0     0
SMALL
bcc


@<TRIPOS>ATOM
      1 C36          0.0000     0.0000     0.0000 ca         1 391      -0.110000
      2 C35          1.3800     0.0000     0.0000 ca         1 391       0.048100
      3 O39          2.1790     0.0000     1.1020 os         1 391      -0.299900
      4 C38          3.4860     0.0000     0.4950 c3         1 391       0.300200
      5 O37          3.4470     0.0010    -0.9470 os         1 391      -0.292900
      6 C34          2.1040     0.0000    -1.1700 ca         1 391       0.049100
      7 C33          1.4880     0.0010    -2.4050 ca         1 391      -0.111000
      8 C32          0.0920     0.0000    -2.4340 ca         1 391      -0.120000
      9 C31         -0.6480     0.0000    -1.2380 ca         1 391       0.102100
     10 O28         -2.0090     0.0010    -1.2890 os         1 391      -0.360400
     11 C23         -2.6520    -1.2260    -1.3130 ca         1 391       0.689600
     12 N22         -1.8660    -2.3150    -1.2840 nb         1 391      -0.811000
     13 C24         -4.0230    -1.2490    -1.3630 ca         1 391      -0.403600
     14 C25         -4.5870    -2.5090    -1.3840 ca         1 391       0.490600
     15 C27         -6.0710    -2.6480    -1.4400 c3         1 391      -0.154400
     16 N26         -3.8700    -3.6510    -1.3580 nb         1 391      -0.715000
     17 C21         -2.5340    -3.4830    -1.3100 ca         1 391       0.889300
     18 O17         -1.7730    -4.6280    -1.2810 os         1 391      -0.339400
     19 C14         -0.4040    -4.4720    -1.2300 ca         1 391       0.096100
     20 C15          0.3160    -4.3940    -2.4130 ca         1 391      -0.091000
     21 C16          1.7010    -4.2360    -2.3620 ca         1 391      -0.145000
     22 C13          0.2260    -4.3920     0.0020 ca         1 391      -0.091000
     23 C12          1.6120    -4.2330     0.0520 ca         1 391      -0.145000
     24 C11          2.3480    -4.1540    -1.1290 ca         1 391       0.020800
     25 N3           3.7210    -3.9960    -1.0790 na         1 391      -0.105000
     26 C4           4.5730    -3.9040    -2.1500 cc         1 391      -0.257600
     27 C5           5.8250    -3.7590    -1.6010 cd         1 391       0.292200
     28 NFE          5.7680    -3.7580    -0.2290 nd         1 391      -0.656000
     29 C2           4.4920    -3.9030     0.0520 cc         1 391       0.388400
     30 H36         -0.5610     0.0000     0.9270 ha         1 391       0.160000
     31 H381         4.0050     0.8960     0.8160 h2         1 391       0.069700
     32 H382         4.0050    -0.8950     0.8150 h2         1 391       0.069700
     33 H33          2.0680     0.0010    -3.3200 ha         1 391       0.155000
     34 H32         -0.4260     0.0000    -3.3850 ha         1 391       0.148000
     35 H24         -4.5930    -0.4060    -0.9890 ha         1 391       0.173000
     36 H271        -6.4510    -2.1220    -2.3080 hc         1 391       0.063367
     37 H272        -6.5080    -2.2280    -0.5430 hc         1 391       0.063367
     38 H273        -6.3330    -3.6970    -1.5110 hc         1 391       0.063367
     39 H15         -0.1920    -4.4580    -3.3680 ha         1 391       0.152500
     40 H16          2.2730    -4.1750    -3.2800 ha         1 391       0.144500
     41 H13         -0.3500    -4.4540     0.9170 ha         1 391       0.152500
     42 H12          2.1150    -4.1700     1.0090 ha         1 391       0.144500
     43 H4           4.3160    -3.9390    -3.2020 h4         1 391       0.183000
     44 H5           6.7380    -3.6580    -2.1750 h4         1 391       0.039100
     45 H2           4.0950    -3.9430     1.0590 h5         1 391       0.059100
@<TRIPOS>BOND
     1     1     9 ar  
     2     1     2 ar  
     3     1    30 1   
     4     2     3 1   
     5     2     6 ar  
     6     3     4 1   
     7     4     5 1   
     8     4    31 1   
     9     4    32 1   
    10     5     6 1   
    11     6     7 ar  
    12     7     8 ar  
    13     7    33 1   
    14     8     9 ar  
    15     8    34 1   
    16     9    10 1   
    17    10    11 1   
    18    11    13 ar  
    19    11    12 ar  
    20    12    17 ar  
    21    13    14 ar  
    22    13    35 1   
    23    14    15 1   
    24    14    16 ar  
    25    15    36 1   
    26    15    37 1   
    27    15    38 1   
    28    16    17 ar  
    29    17    18 1   
    30    18    19 1   
    31    19    20 ar  
    32    19    22 ar  
    33    20    21 ar  
    34    20    39 1   
    35    21    24 ar  
    36    21    40 1   
    37    22    23 ar  
    38    22    41 1   
    39    23    24 ar  
    40    23    42 1   
    41    24    25 1   
    42    25    26 1   
    43    25    29 1   
    44    26    27 2   
    45    26    43 1   
    46    27    28 1   
    47    27    44 1   
    48    28    29 2   
    49    29    45 1   
@<TRIPOS>SUBSTRUCTURE
     1 391         1 TEMP              0 ****  ****    0 ROOT
