@<TRIPOS>MOLECULE
392
   43    44     1     0     0
SMALL
bcc


@<TRIPOS>ATOM
      1 CAJ          0.0000     0.0000     0.0000 ca         1 392      -0.086500
      2 CAT          1.3830     0.0000     0.0000 ca         1 392      -0.026600
      3 ClC          2.2520     0.0000    -1.5030 cl         1 392      -0.017400
      4 CAI          2.0740     0.0000     1.1980 ca         1 392      -0.098000
      5 CAU          1.3830     0.0000     2.3960 ca         1 392      -0.026600
      6 ClD          2.2490     0.0010     3.8990 cl         1 392      -0.017400
      7 CAK         -0.0020     0.0000     2.3940 ca         1 392      -0.086500
      8 CAW         -0.6920     0.0050     1.1970 ca         1 392      -0.075300
      9 CAO         -2.1980     0.0110     1.1960 c3         1 392       0.203100
     10 NAP         -2.6940    -1.3720     1.1990 n7         1 392      -0.583200
     11 CAM         -4.1630    -1.4050     1.1990 c3         1 392       0.149800
     12 CAL         -4.6400    -2.8590     1.2010 c3         1 392      -0.044400
     13 CAN         -6.1700    -2.8930     1.2010 c3         1 392       0.067000
     14 NAQ         -6.6270    -4.2850     1.2030 ns         1 392      -0.218900
     15 CAS         -7.9460    -4.5610     1.2030 c          1 392       0.564100
     16 OAA         -8.7570    -3.6550     1.2010 o          1 392      -0.698100
     17 NAR         -8.3670    -5.8420     1.2060 ns         1 392      -0.037100
     18 CAX         -9.7330    -6.1300     1.3250 ca         1 392      -0.093400
     19 CAH        -10.5850    -5.2220     1.9360 ca         1 392      -0.103000
     20 CAF        -11.9320    -5.5080     2.0520 ca         1 392      -0.097000
     21 CAE        -12.4330    -6.6990     1.5600 ca         1 392      -0.101000
     22 CAG        -11.5900    -7.6100     0.9500 ca         1 392      -0.137000
     23 CAV        -10.2400    -7.3280     0.8250 ca         1 392       0.082100
     24 OAB         -9.4090    -8.2210     0.2250 oh         1 392      -0.505100
     25 H1          -0.5410     0.0040    -0.9380 ha         1 392       0.119500
     26 H2           3.1580    -0.0000     1.1980 ha         1 392       0.126000
     27 H3          -0.5440     0.0020     3.3320 ha         1 392       0.119500
     28 H4          -2.5580     0.5250     2.0790 h1         1 392       0.013700
     29 H5          -2.5570     0.5210     0.3100 h1         1 392       0.013700
     30 H6          -2.3490    -1.8510     0.3910 hn         1 392       0.255800
     31 H8          -4.5360    -0.9010     2.0820 h1         1 392       0.011200
     32 H9          -4.5350    -0.9040     0.3130 h1         1 392       0.011200
     33 H10         -4.2670    -3.3630     0.3170 hc         1 392       0.022200
     34 H11         -4.2670    -3.3590     2.0870 hc         1 392       0.022200
     35 H12         -6.5420    -2.3920     0.3150 h1         1 392       0.026200
     36 H13         -6.5430    -2.3880     2.0840 h1         1 392       0.026200
     37 H14         -5.9590    -5.0300     1.1900 hn         1 392       0.169500
     38 H15         -7.7020    -6.5870     1.1310 hn         1 392       0.170500
     39 H16        -10.1940    -4.2880     2.3220 ha         1 392       0.160000
     40 H17        -12.5970    -4.7980     2.5290 ha         1 392       0.105000
     41 H18        -13.4890    -6.9210     1.6550 ha         1 392       0.102000
     42 H19        -11.9870    -8.5410     0.5650 ha         1 392       0.110000
     43 H20         -9.6300    -8.2910    -0.6890 ho         1 392       0.404000
@<TRIPOS>BOND
     1     1     2 ar  
     2     1     8 ar  
     3     1    25 1   
     4     2     3 1   
     5     2     4 ar  
     6     4     5 ar  
     7     4    26 1   
     8     5     6 1   
     9     5     7 ar  
    10     7     8 ar  
    11     7    27 1   
    12     8     9 1   
    13     9    10 1   
    14     9    28 1   
    15     9    29 1   
    16    10    11 1   
    17    10    30 1   
    18    11    12 1   
    19    11    31 1   
    20    11    32 1   
    21    12    13 1   
    22    12    33 1   
    23    12    34 1   
    24    13    14 1   
    25    13    35 1   
    26    13    36 1   
    27    14    15 1   
    28    14    37 1   
    29    15    16 2   
    30    15    17 1   
    31    17    18 1   
    32    17    38 1   
    33    18    19 ar  
    34    18    23 ar  
    35    19    20 ar  
    36    19    39 1   
    37    20    21 ar  
    38    20    40 1   
    39    21    22 ar  
    40    21    41 1   
    41    22    23 ar  
    42    22    42 1   
    43    23    24 1   
    44    24    43 1   
@<TRIPOS>SUBSTRUCTURE
     1 392         1 TEMP              0 ****  ****    0 ROOT
