@<TRIPOS>MOLECULE
393
   37    38     1     0     0
SMALL
bcc


@<TRIPOS>ATOM
      1 C1           0.0000     0.0000     0.0000 ca         1 393      -0.447200
      2 N2          -0.7100    -0.0000    -1.2290 no         1 393       1.032200
      3 O3          -1.9650    -0.0000    -1.2070 o          1 393      -0.455000
      4 O4          -0.0640     0.0020    -2.3060 o          1 393      -0.455000
      5 C5           1.3950     0.0000     0.0000 ca         1 393       0.066000
      6 C6           2.0820     0.0000     1.2080 ca         1 393      -0.160300
      7 C7           3.5840    -0.0010     1.2090 c3         1 393       0.115300
      8 N8           4.1240     1.3390     1.2100 ns         1 393      -0.196900
      9 C9           4.4130     2.0550     2.3780 c          1 393       0.621700
     10 C10          4.9310     3.4060     2.2130 ca         1 393      -0.198600
     11 C11          5.7940     3.9240     3.1790 ca         1 393      -0.014000
     12 C12          6.3010     5.2150     3.0390 ca         1 393      -0.164000
     13 C13          5.9450     5.9890     1.9340 ca         1 393       0.006400
     14 Cl1          6.5710     7.5830     1.7630 cl         1 393      -0.045400
     15 C15          5.0820     5.4710     0.9690 ca         1 393      -0.170000
     16 C16          4.5750     4.1780     1.1080 ca         1 393       0.193100
     17 O17          3.7330     3.6910     0.1540 os         1 393      -0.325900
     18 C18          2.5160     4.4040    -0.0620 c3         1 393       0.102400
     19 C19          1.7080     3.7190    -1.1290 c          1 393       0.975600
     20 O20          0.5350     4.3730    -1.3200 o          1 393      -0.878800
     21 O21          2.0410     2.7190    -1.7460 o          1 393      -0.878800
     22 O22          4.2240     1.5870     3.5140 o          1 393      -0.683100
     23 C23          1.3950    -0.0010     2.4170 ca         1 393      -0.017000
     24 C24         -0.0000    -0.0020     2.4160 ca         1 393      -0.150000
     25 C25         -0.6980    -0.0010     1.2070 ca         1 393       0.001000
     26 H5           1.9370    -0.1230    -0.9300 ha         1 393       0.148000
     27 H71          3.9360    -0.5210     0.3270 h1         1 393       0.020700
     28 H72          3.9350    -0.5230     2.0910 h1         1 393       0.020700
     29 HN8          4.3040     1.7790     0.3290 hn         1 393       0.221500
     30 H11          6.0710     3.3230     4.0360 ha         1 393       0.117000
     31 H12          6.9720     5.6180     3.7880 ha         1 393       0.110000
     32 H15          4.8050     6.0720     0.1110 ha         1 393       0.137000
     33 H181         2.7430     5.4150    -0.3760 h1         1 393       0.001200
     34 H182         1.9470     4.4310     0.8590 h1         1 393       0.001200
     35 H23          1.9390    -0.0020     3.3530 ha         1 393       0.120000
     36 H24         -0.5420    -0.0020     3.3540 ha         1 393       0.105000
     37 H25         -1.7810    -0.0010     1.2070 ha         1 393       0.127000
@<TRIPOS>BOND
     1     1     2 1   
     2     1     5 ar  
     3     1    25 ar  
     4     2     3 1   
     5     2     4 1   
     6     5     6 ar  
     7     5    26 1   
     8     6     7 1   
     9     6    23 ar  
    10     7     8 1   
    11     7    27 1   
    12     7    28 1   
    13     8     9 1   
    14     8    29 1   
    15     9    10 1   
    16     9    22 2   
    17    10    11 ar  
    18    10    16 ar  
    19    11    12 ar  
    20    11    30 1   
    21    12    13 ar  
    22    12    31 1   
    23    13    14 1   
    24    13    15 ar  
    25    15    16 ar  
    26    15    32 1   
    27    16    17 1   
    28    17    18 1   
    29    18    19 1   
    30    18    33 1   
    31    18    34 1   
    32    19    20 1   
    33    19    21 1   
    34    23    24 ar  
    35    23    35 1   
    36    24    25 ar  
    37    24    36 1   
    38    25    37 1   
@<TRIPOS>SUBSTRUCTURE
     1 393         1 TEMP              0 ****  ****    0 ROOT
