@<TRIPOS>MOLECULE
394
   54    56     1     0     0
SMALL
bcc


@<TRIPOS>ATOM
      1 C1           0.0000     0.0000     0.0000 ca         1 394       0.025900
      2 C2           1.3780     0.0000     0.0000 ca         1 394      -0.081000
      3 C3           2.0740     0.0000     1.2120 ca         1 394      -0.085600
      4 C4           1.3710     0.0050     2.4180 ca         1 394      -0.073000
      5 C5          -0.0060     0.0100     2.4120 ca         1 394      -0.129000
      6 C6          -0.6970     0.0110     1.2050 ca         1 394      -0.160400
      7 C7           3.5490    -0.0060     1.2170 c          1 394       0.971200
      8 C8          -5.0960    -0.3820    -0.0450 ca         1 394      -0.108000
      9 C9          -4.8780    -1.0580     1.1370 ca         1 394      -0.121300
     10 C10         -5.2170    -2.3950     1.2360 ca         1 394      -0.061000
     11 C11         -5.7700    -3.0430     0.1500 ca         1 394      -0.112000
     12 C12         -5.9900    -2.3630    -1.0410 ca         1 394      -0.062300
     13 C13         -6.5890    -3.1340    -2.1870 c3         1 394      -0.006700
     14 C14         -7.1540    -2.1810    -3.2380 c3         1 394      -0.029400
     15 C15         -6.0700    -1.1580    -3.5940 c3         1 394      -0.028400
     16 C16         -5.8710    -0.2320    -2.3950 c3         1 394      -0.007700
     17 C17         -5.6550    -1.0330    -1.1380 ca         1 394      -0.063300
     18 C18         -4.6520     0.6590    -2.6410 c3         1 394       0.000400
     19 C19         -7.1120     0.6470    -2.2250 c3         1 394       0.000400
     20 C20         -7.7140    -4.0290    -1.6610 c3         1 394       0.001900
     21 C21         -5.5080    -4.0080    -2.8270 c3         1 394       0.001900
     22 C22         -4.2710    -0.3440     2.3160 c3         1 394       0.180400
     23 C23         -2.7710    -0.4680     2.2610 c          1 394       0.528100
     24 N6          -2.0930     0.0160     1.2020 ns         1 394      -0.008100
     25 F1          -0.6750    -0.0010    -1.1710 f          1 394      -0.151900
     26 O22         -4.7530    -0.9290     3.5280 oh         1 394      -0.551800
     27 O23         -2.1730    -1.0040     3.1690 o          1 394      -0.611100
     28 O71          4.1530    -0.0060     2.2720 o          1 394      -0.880800
     29 O72          4.2270    -0.0110     0.0520 o          1 394      -0.880800
     30 H2           1.9210    -0.0060    -0.9380 ha         1 394       0.144000
     31 H4           1.9080     0.0050     3.3590 ha         1 394       0.126000
     32 H5          -0.5520     0.0160     3.3480 ha         1 394       0.141000
     33 H8          -4.8400     0.6680    -0.1180 ha         1 394       0.112000
     34 H10         -5.1300    -2.9070     2.1860 ha         1 394       0.126000
     35 H11         -6.0320    -4.0920     0.2270 ha         1 394       0.111000
     36 H141        -7.4310    -2.7390    -4.1240 hc         1 394       0.019200
     37 H142        -8.0200    -1.6690    -2.8370 hc         1 394       0.019200
     38 H151        -6.4030    -0.5710    -4.4410 hc         1 394       0.026200
     39 H152        -5.1420    -1.6810    -3.7930 hc         1 394       0.026200
     40 H181        -4.6410     1.4650    -1.9180 hc         1 394       0.008367
     41 H182        -3.7480     0.0700    -2.5390 hc         1 394       0.008367
     42 H183        -4.7030     1.0720    -3.6420 hc         1 394       0.008367
     43 H191        -6.8360     1.5690    -1.7270 hc         1 394       0.008367
     44 H192        -7.8480     0.1220    -1.6290 hc         1 394       0.008367
     45 H193        -7.5300     0.8740    -3.1980 hc         1 394       0.008367
     46 H201        -8.3030    -4.3950    -2.4930 hc         1 394       0.008033
     47 H202        -7.2870    -4.8680    -1.1240 hc         1 394       0.008033
     48 H203        -8.3470    -3.4580    -0.9930 hc         1 394       0.008033
     49 H211        -5.4100    -4.9300    -2.2660 hc         1 394       0.008033
     50 H212        -5.7850    -4.2350    -3.8490 hc         1 394       0.008033
     51 H213        -4.5630    -3.4780    -2.8180 hc         1 394       0.008033
     52 H22         -4.5470     0.7030     2.2850 h1         1 394       0.005700
     53 HN6         -2.5900     0.4160     0.4310 hn         1 394       0.163500
     54 HO22        -5.1520    -0.2620     4.0620 ho         1 394       0.383000
@<TRIPOS>BOND
     1     1     2 ar  
     2     1     6 ar  
     3     1    25 1   
     4     2     3 ar  
     5     2    30 1   
     6     3     4 ar  
     7     3     7 1   
     8     4     5 ar  
     9     4    31 1   
    10     5     6 ar  
    11     5    32 1   
    12     6    24 1   
    13     7    28 1   
    14     7    29 1   
    15     8     9 ar  
    16     8    17 ar  
    17     8    33 1   
    18     9    10 ar  
    19     9    22 1   
    20    10    11 ar  
    21    10    34 1   
    22    11    12 ar  
    23    11    35 1   
    24    12    13 1   
    25    12    17 ar  
    26    13    14 1   
    27    13    20 1   
    28    13    21 1   
    29    14    15 1   
    30    14    36 1   
    31    14    37 1   
    32    15    16 1   
    33    15    38 1   
    34    15    39 1   
    35    16    17 1   
    36    16    18 1   
    37    16    19 1   
    38    18    40 1   
    39    18    41 1   
    40    18    42 1   
    41    19    43 1   
    42    19    44 1   
    43    19    45 1   
    44    20    46 1   
    45    20    47 1   
    46    20    48 1   
    47    21    49 1   
    48    21    50 1   
    49    21    51 1   
    50    22    23 1   
    51    22    26 1   
    52    22    52 1   
    53    23    24 1   
    54    23    27 2   
    55    24    53 1   
    56    26    54 1   
@<TRIPOS>SUBSTRUCTURE
     1 394         1 TEMP              0 ****  ****    0 ROOT
