@<TRIPOS>MOLECULE
396
   62    67     1     0     0
SMALL
bcc


@<TRIPOS>ATOM
      1 C26          0.0000     0.0000     0.0000 c3         1 396       0.147300
      2 C27          1.5440     0.0000     0.0000 c3         1 396      -0.026400
      3 C29          1.9440     0.0000     1.4890 c3         1 396      -0.026400
      4 C25          0.6090    -0.0000     2.2650 c3         1 396       0.147300
      5 N4          -0.3730    -0.5820     1.3150 n3         1 396      -0.532600
      6 C24         -1.7470    -0.2100     1.6840 c3         1 396       0.140800
      7 C23         -2.1830    -1.0200     2.9070 c3         1 396       0.047000
      8 N3          -3.5510    -0.6480     3.2760 ns         1 396      -0.212900
      9 C22         -4.1490    -1.2370     4.3300 c          1 396       0.594700
     10 O4          -3.5510    -2.0760     4.9760 o          1 396      -0.618100
     11 C20         -5.5260    -0.8630     4.7000 ca         1 396      -0.147600
     12 C18         -6.2090     0.1000     3.9580 ca         1 396      -0.087000
     13 C19         -6.1490    -1.4810     5.7960 ca         1 396       0.169100
     14 O3          -5.4830    -2.4220     6.5140 oh         1 396      -0.456100
     15 C17         -7.4390    -1.1330     6.1450 ca         1 396      -0.118000
     16 C15         -8.1210    -0.1650     5.4060 cp         1 396      -0.039000
     17 C16         -7.5040     0.4540     4.3060 ca         1 396      -0.189200
     18 N2          -8.3980     1.3600     3.7560 na         1 396       0.366700
     19 C21         -8.1240     2.2030     2.5900 c3         1 396      -0.001400
     20 C14         -9.5830     1.3550     4.4650 ca         1 396      -0.136200
     21 C1         -10.7610     2.0750     4.3070 ca         1 396      -0.113000
     22 C13         -9.4680     0.4180     5.5130 cp         1 396      -0.024000
     23 C4         -10.5380     0.2120     6.3850 ca         1 396      -0.093600
     24 C5         -10.7650    -0.6640     7.5530 c          1 396       0.647100
     25 O1          -9.9650    -1.4540     8.0130 o          1 396      -0.622500
     26 N1         -12.0060    -0.4400     8.0200 ns         1 396      -0.165500
     27 C6         -12.6360     0.4960     7.2870 c          1 396       0.650100
     28 O2         -13.7650     0.9020     7.4740 o          1 396      -0.609500
     29 C3         -11.7260     0.9480     6.2200 ca         1 396      -0.197600
     30 C2         -11.8310     1.8780     5.1760 cp         1 396       0.078000
     31 C7         -13.0810     2.6510     4.9980 cp         1 396      -0.048000
     32 C12        -13.8580     2.4730     3.8550 ca         1 396      -0.077000
     33 C11        -15.0220     3.1960     3.6930 ca         1 396      -0.104000
     34 C10        -15.4190     4.0990     4.6640 ca         1 396      -0.082000
     35 C9         -14.6530     4.2810     5.8020 ca         1 396      -0.096000
     36 C8         -13.4900     3.5590     5.9780 ca         1 396       0.003400
     37 Cl5        -12.5330     3.7830     7.4090 cl         1 396      -0.020400
     38 H26         -0.3760     1.0120    -0.0840 h1         1 396       0.013700
     39 H26A        -0.3760    -0.6180    -0.8060 h1         1 396       0.013700
     40 H27          1.9190     0.8910    -0.4890 hc         1 396       0.018450
     41 H27A         1.9190    -0.8910    -0.4890 hc         1 396       0.018450
     42 H29          2.5140     0.8910     1.7240 hc         1 396       0.018450
     43 H29A         2.5140    -0.8910     1.7240 hc         1 396       0.018450
     44 H25          0.3260     1.0120     2.5270 h1         1 396       0.013700
     45 H25A         0.6880    -0.6190     3.1510 h1         1 396       0.013700
     46 H24         -2.4130    -0.4190     0.8560 h1         1 396       0.008200
     47 H24A        -1.7830     0.8470     1.9190 h1         1 396       0.008200
     48 H23         -2.1470    -2.0770     2.6720 h1         1 396       0.035200
     49 H23A        -1.5170    -0.8110     3.7350 h1         1 396       0.035200
     50 HN3         -4.0440     0.0390     2.7410 hn         1 396       0.172500
     51 H18         -5.7280     0.5720     3.1100 ha         1 396       0.104000
     52 HO3         -5.9650    -3.2330     6.4930 ho         1 396       0.402000
     53 H17         -7.9210    -1.6090     6.9900 ha         1 396       0.149000
     54 H21         -8.0910     1.5880     1.7000 h1         1 396       0.018700
     55 H21A        -7.1700     2.7010     2.7210 h1         1 396       0.018700
     56 H21B        -8.9070     2.9440     2.4880 h1         1 396       0.018700
     57 H1         -10.8460     2.7970     3.5040 ha         1 396       0.117000
     58 HN1        -12.4080    -0.9070     8.8080 hn         1 396       0.201500
     59 H12        -13.5490     1.7670     3.0940 ha         1 396       0.107000
     60 H11        -15.6260     3.0580     2.8040 ha         1 396       0.105000
     61 H10        -16.3320     4.6670     4.5320 ha         1 396       0.105000
     62 H9         -14.9700     4.9880     6.5600 ha         1 396       0.116000
@<TRIPOS>BOND
     1     1     2 1   
     2     1     5 1   
     3     1    38 1   
     4     1    39 1   
     5     2     3 1   
     6     2    40 1   
     7     2    41 1   
     8     3     4 1   
     9     3    42 1   
    10     3    43 1   
    11     4     5 1   
    12     4    44 1   
    13     4    45 1   
    14     5     6 1   
    15     6     7 1   
    16     6    46 1   
    17     6    47 1   
    18     7     8 1   
    19     7    48 1   
    20     7    49 1   
    21     8     9 1   
    22     8    50 1   
    23     9    10 2   
    24     9    11 1   
    25    11    12 ar  
    26    11    13 ar  
    27    12    17 ar  
    28    12    51 1   
    29    13    14 1   
    30    13    15 ar  
    31    14    52 1   
    32    15    16 ar  
    33    15    53 1   
    34    16    17 ar  
    35    16    22 1   
    36    17    18 1   
    37    18    19 1   
    38    18    20 1   
    39    19    54 1   
    40    19    55 1   
    41    19    56 1   
    42    20    21 ar  
    43    20    22 ar  
    44    21    30 ar  
    45    21    57 1   
    46    22    23 ar  
    47    23    24 1   
    48    23    29 ar  
    49    24    25 2   
    50    24    26 1   
    51    26    27 1   
    52    26    58 1   
    53    27    28 2   
    54    27    29 1   
    55    29    30 ar  
    56    30    31 1   
    57    31    32 ar  
    58    31    36 ar  
    59    32    33 ar  
    60    32    59 1   
    61    33    34 ar  
    62    33    60 1   
    63    34    35 ar  
    64    34    61 1   
    65    35    36 ar  
    66    35    62 1   
    67    36    37 1   
@<TRIPOS>SUBSTRUCTURE
     1 396         1 TEMP              0 ****  ****    0 ROOT
