@<TRIPOS>MOLECULE
molecule
   62    67     1     0     0
SMALL
bcc


@<TRIPOS>ATOM
      1 C26          0.0000     0.0000     0.0000 c3         1 396       0.140300
      2 C27          1.5440     0.0000     0.0000 c3         1 396      -0.084400
      3 C29          1.9440     0.0000     1.4890 c3         1 396      -0.084400
      4 C25          0.6090    -0.0000     2.2650 c3         1 396       0.140300
      5 N4          -0.3730    -0.5820     1.3150 n3         1 396      -0.693600
      6 C24         -1.7470    -0.2100     1.6840 c3         1 396       0.132800
      7 C23         -2.1830    -1.0200     2.9070 c3         1 396       0.116000
      8 N3          -3.5510    -0.6480     3.2760 ns         1 396      -0.592900
      9 C22         -4.1490    -1.2370     4.3300 c          1 396       0.671700
     10 O4          -3.5510    -2.0760     4.9760 o          1 396      -0.573100
     11 C20         -5.5260    -0.8630     4.7000 ca         1 396      -0.125600
     12 C18         -6.2090     0.1000     3.9580 ca         1 396      -0.122000
     13 C19         -6.1490    -1.4810     5.7960 ca         1 396       0.141100
     14 O3          -5.4830    -2.4220     6.5140 oh         1 396      -0.478100
     15 C17         -7.4390    -1.1330     6.1450 ca         1 396      -0.127000
     16 C15         -8.1210    -0.1650     5.4060 cp         1 396      -0.053000
     17 C16         -7.5040     0.4540     4.3060 ca         1 396      -0.015200
     18 N2          -8.3980     1.3600     3.7560 na         1 396      -0.082300
     19 C21         -8.1240     2.2030     2.5900 c3         1 396       0.044600
     20 C14         -9.5830     1.3550     4.4650 ca         1 396       0.031800
     21 C1         -10.7610     2.0750     4.3070 ca         1 396      -0.140000
     22 C13         -9.4680     0.4180     5.5130 cp         1 396      -0.034000
     23 C4         -10.5380     0.2120     6.3850 ca         1 396      -0.092600
     24 C5         -10.7650    -0.6640     7.5530 c          1 396       0.726100
     25 O1          -9.9650    -1.4540     8.0130 o          1 396      -0.583500
     26 N1         -12.0060    -0.4400     8.0200 ns         1 396      -0.582500
     27 C6         -12.6360     0.4960     7.2870 c          1 396       0.727100
     28 O2         -13.7650     0.9020     7.4740 o          1 396      -0.567500
     29 C3         -11.7260     0.9480     6.2200 ca         1 396      -0.172600
     30 C2         -11.8310     1.8780     5.1760 cp         1 396       0.063000
     31 C7         -13.0810     2.6510     4.9980 cp         1 396      -0.049000
     32 C12        -13.8580     2.4730     3.8550 ca         1 396      -0.101000
     33 C11        -15.0220     3.1960     3.6930 ca         1 396      -0.131000
     34 C10        -15.4190     4.0990     4.6640 ca         1 396      -0.109000
     35 C9         -14.6530     4.2810     5.8020 ca         1 396      -0.119000
     36 C8         -13.4900     3.5590     5.9780 ca         1 396       0.065400
     37 Cl5        -12.5330     3.7830     7.4090 cl         1 396      -0.097400
     38 H26         -0.3760     1.0120    -0.0840 h1         1 396       0.042950
     39 H26A        -0.3760    -0.6180    -0.8060 h1         1 396       0.042950
     40 H27          1.9190     0.8910    -0.4890 hc         1 396       0.049450
     41 H27A         1.9190    -0.8910    -0.4890 hc         1 396       0.049450
     42 H29          2.5140     0.8910     1.7240 hc         1 396       0.049450
     43 H29A         2.5140    -0.8910     1.7240 hc         1 396       0.049450
     44 H25          0.3260     1.0120     2.5270 h1         1 396       0.042950
     45 H25A         0.6880    -0.6190     3.1510 h1         1 396       0.042950
     46 H24         -2.4130    -0.4190     0.8560 h1         1 396       0.034700
     47 H24A        -1.7830     0.8470     1.9190 h1         1 396       0.034700
     48 H23         -2.1470    -2.0770     2.6720 h1         1 396       0.063200
     49 H23A        -1.5170    -0.8110     3.7350 h1         1 396       0.063200
     50 HN3         -4.0440     0.0390     2.7410 hn         1 396       0.306500
     51 H18         -5.7280     0.5720     3.1100 ha         1 396       0.128000
     52 HO3         -5.9650    -3.2330     6.4930 ho         1 396       0.423000
     53 H17         -7.9210    -1.6090     6.9900 ha         1 396       0.176000
     54 H21         -8.0910     1.5880     1.7000 h1         1 396       0.050700
     55 H21A        -7.1700     2.7010     2.7210 h1         1 396       0.050700
     56 H21B        -8.9070     2.9440     2.4880 h1         1 396       0.050700
     57 H1         -10.8460     2.7970     3.5040 ha         1 396       0.145000
     58 HN1        -12.4080    -0.9070     8.8080 hn         1 396       0.357500
     59 H12        -13.5490     1.7670     3.0940 ha         1 396       0.138000
     60 H11        -15.6260     3.0580     2.8040 ha         1 396       0.136000
     61 H10        -16.3320     4.6670     4.5320 ha         1 396       0.137000
     62 H9         -14.9700     4.9880     6.5600 ha         1 396       0.147000
@<TRIPOS>BOND
     1     1     2 1   
     2     1     5 1   
     3     2     3 1   
     4     3     4 1   
     5     4     5 1   
     6     5     6 1   
     7     6     7 1   
     8     7     8 1   
     9     8     9 1   
    10     9    10 2   
    11     9    11 1   
    12    11    12 ar  
    13    11    13 ar  
    14    12    17 ar  
    15    13    14 1   
    16    13    15 ar  
    17    15    16 ar  
    18    16    17 ar  
    19    16    22 1   
    20    17    18 1   
    21    18    19 1   
    22    18    20 1   
    23    20    21 ar  
    24    20    22 ar  
    25    21    30 ar  
    26    22    23 ar  
    27    23    24 1   
    28    23    29 ar  
    29    24    25 2   
    30    24    26 1   
    31    26    27 1   
    32    27    28 2   
    33    27    29 1   
    34    29    30 ar  
    35    30    31 1   
    36    31    32 ar  
    37    31    36 ar  
    38    32    33 ar  
    39    33    34 ar  
    40    34    35 ar  
    41    35    36 ar  
    42    36    37 1   
    43     1    38 1   
    44     1    39 1   
    45     2    40 1   
    46     2    41 1   
    47     3    42 1   
    48     3    43 1   
    49     4    44 1   
    50     4    45 1   
    51     6    46 1   
    52     6    47 1   
    53     7    48 1   
    54     7    49 1   
    55     8    50 1   
    56    12    51 1   
    57    14    52 1   
    58    15    53 1   
    59    19    54 1   
    60    19    55 1   
    61    19    56 1   
    62    21    57 1   
    63    26    58 1   
    64    32    59 1   
    65    33    60 1   
    66    34    61 1   
    67    35    62 1   
@<TRIPOS>SUBSTRUCTURE
     1 396         1 TEMP              0 ****  ****    0 ROOT
