@<TRIPOS>MOLECULE
397
   27    29     1     0     0
SMALL
bcc


@<TRIPOS>ATOM
      1 C1          0.1150   -0.0200   -0.0820 ca        1 397     -0.138000
      2 C2          1.5030   -0.0500   -0.0090 ca        1 397     -0.088000
      3 C3          2.0680    0.0090    1.2610 ca        1 397      0.029100
      4 C4          1.2950    0.0960    2.4590 ca        1 397     -0.062800
      5 C5         -0.0940    0.1250    2.3730 ca        1 397     -0.176000
      6 C6         -0.6630    0.0660    1.0950 ca        1 397      0.110100
      7 O10         3.4320   -0.0070    1.5620 os        1 397     -0.200200
      8 C11         3.5110    0.0710    2.9730 cc        1 397      0.113900
      9 C12         2.2540    0.1350    3.5430 cd        1 397     -0.181200
     10 C13         4.8380    0.0710    3.5370 ca        1 397     -0.081800
     11 C14         5.9720   -0.0080    2.7110 ca        1 397     -0.065000
     12 C15         7.2490   -0.0080    3.2560 ca        1 397     -0.190000
     13 C16         7.3970    0.0730    4.6520 ca        1 397      0.139100
     14 C17         6.2750    0.1520    5.4900 ca        1 397     -0.190000
     15 C18         5.0030    0.1510    4.9280 ca        1 397     -0.065000
     16 O23        -2.0270    0.0880    0.8990 oh        1 397     -0.499100
     17 O24         8.6840    0.0680    5.1330 oh        1 397     -0.493100
     18 H1         -0.3980   -0.0630   -1.0540 ha        1 397      0.155000
     19 H2          2.1260   -0.1170   -0.9110 ha        1 397      0.153000
     20 H5         -0.7180    0.1920    3.2730 ha        1 397      0.141000
     21 H12         2.0100    0.2010    4.5990 ha        1 397      0.163000
     22 H14         5.8410   -0.0700    1.6180 ha        1 397      0.146000
     23 H15         8.1420   -0.0690    2.6180 ha        1 397      0.146500
     24 H17         6.4000    0.2150    6.5800 ha        1 397      0.146500
     25 H18         4.1190    0.2130    5.5820 ha        1 397      0.146000
     26 H23        -2.4520    0.1480    1.7670 ho        1 397      0.419000
     27 H24         8.6440    0.1280    6.0990 ho        1 397      0.422000
@<TRIPOS>BOND
     1    1    2 ar  
     2    1    6 ar  
     3    1   18 1   
     4    2    3 ar  
     5    2   19 1   
     6    3    4 ar  
     7    3    7 1   
     8    4    5 ar  
     9    4    9 1   
    10    5    6 ar  
    11    5   20 1   
    12    6   16 1   
    13    7    8 1   
    14    8    9 2   
    15    8   10 1   
    16    9   21 1   
    17   10   11 ar  
    18   10   15 ar  
    19   11   12 ar  
    20   11   22 1   
    21   12   13 ar  
    22   12   23 1   
    23   13   14 ar  
    24   13   17 1   
    25   14   15 ar  
    26   14   24 1   
    27   15   25 1   
    28   16   26 1   
    29   17   27 1   
@<TRIPOS>SUBSTRUCTURE
     1 397         1 TEMP              0 ****  ****    0 ROOT
