@<TRIPOS>MOLECULE
molecule
   94    99     1     0     0
SMALL
bcc


@<TRIPOS>ATOM
      1 O53          0.0000     0.0000     0.0000 o          1 398      -0.576100
      2 C42          1.2160     0.0000     0.0000 c          1 398       0.683700
      3 N43          1.8900     0.0000     1.1660 n          1 398      -0.481800
      4 C48          3.3520    -0.1120     1.2030 c3         1 398       0.147300
      5 C47          3.7590    -1.0930     2.2730 ca         1 398      -0.101300
      6 C49          5.0830    -1.5140     2.2950 ca         1 398      -0.125000
      7 C50          5.5180    -2.4030     3.2570 ca         1 398      -0.130000
      8 C51          4.6300    -2.8750     4.2060 ca         1 398      -0.123000
      9 C52          3.3160    -2.4600     4.1820 ca         1 398      -0.127000
     10 C46          2.8730    -1.5700     3.2110 ca         1 398      -0.058300
     11 C45          1.4180    -1.1830     3.2310 c3         1 398      -0.056100
     12 C44          1.1890     0.1190     2.4560 c3         1 398       0.112000
     13 C1           1.9530    -0.0060    -1.2800 ca         1 398      -0.130600
     14 C6           1.6070    -0.9200    -2.2880 ca         1 398       0.090800
     15 N7           0.5660    -1.8240    -2.0820 na         1 398       0.212300
     16 N11          0.4300    -2.5680    -1.0440 nc         1 398      -0.480800
     17 C10         -0.6540    -3.3080    -1.1540 cd         1 398       0.303800
     18 C12         -1.1500    -4.2890    -0.1670 c          1 398       0.608600
     19 O22         -2.1040    -4.0150     0.5370 o          1 398      -0.578100
     20 N13         -0.5470    -5.4880    -0.0460 n          1 398      -0.480800
     21 C18          0.6600    -5.7820    -0.8230 c3         1 398       0.106500
     22 C19          1.8980    -5.4820     0.0250 c3         1 398      -0.104900
     23 C20          3.1560    -5.6760    -0.8230 c3         1 398      -0.082400
     24 C21          4.3960    -5.5020     0.0570 c3         1 398      -0.090600
     25 C14         -1.0970    -6.4980     0.8610 c3         1 398       0.106500
     26 C15         -2.1050    -7.3670     0.1060 c3         1 398      -0.104900
     27 C16         -2.6800    -8.4210     1.0540 c3         1 398      -0.082400
     28 C17         -3.6870    -9.2910     0.2980 c3         1 398      -0.090600
     29 C9          -1.2560    -2.9870    -2.3950 cd         1 398      -0.119900
     30 Cl23        -2.7120    -3.6560    -3.0620 cl         1 398      -0.055400
     31 C8          -0.4590    -2.0430    -2.9500 cc         1 398      -0.103600
     32 C24         -0.6680    -1.3630    -4.2790 c3         1 398      -0.024800
     33 C5           2.3030    -0.9240    -3.4890 ca         1 398      -0.147000
     34 C4           3.3340    -0.0330    -3.6970 ca         1 398      -0.075000
     35 C3           3.6860     0.8820    -2.6990 ca         1 398      -0.164600
     36 C2           2.9900     0.8980    -1.4920 ca         1 398      -0.034000
     37 C25          4.7900     1.8340    -2.9290 c          1 398       0.700700
     38 O26          5.0970     2.6300    -2.0610 o          1 398      -0.564100
     39 N27          5.4600     1.8230    -4.0980 ns         1 398      -0.653300
     40 S28          6.6990     2.8910    -4.3540 sy         1 398       1.413900
     41 O29          7.2140     2.6060    -5.6470 o          1 398      -0.611800
     42 O30          6.2100     4.1700    -3.9780 o          1 398      -0.611800
     43 C31          7.9780     2.4900    -3.2090 ca         1 398      -0.308500
     44 C36          8.9400     1.5970    -3.5660 ca         1 398       0.011000
     45 C35          9.9620     1.2760    -2.6550 ca         1 398      -0.075000
     46 C37         10.9730     0.3580    -2.9880 ca         1 398      -0.064000
     47 C38         11.9460     0.0710    -2.0800 ca         1 398       0.045900
     48 I41         13.4520    -1.2990    -2.5790 i          1 398      -0.161900
     49 C39         11.9570     0.6760    -0.8240 ca         1 398      -0.083000
     50 C40         10.9940     1.5690    -0.4680 ca         1 398      -0.128000
     51 C34          9.9730     1.8900    -1.3780 ca         1 398       0.017000
     52 C33          8.9620     2.8080    -1.0470 ca         1 398      -0.137000
     53 C32          7.9920     3.0990    -1.9570 ca         1 398      -0.028000
     54 H481         3.6960    -0.4800     0.2440 h1         1 398       0.060200
     55 H482         3.7690     0.8580     1.4420 h1         1 398       0.060200
     56 H441         0.1290     0.2620     2.2840 h1         1 398       0.068200
     57 H442         1.5920     0.9540     3.0160 h1         1 398       0.068200
     58 H49          5.7780    -1.1440     1.5510 ha         1 398       0.128000
     59 H50          6.5520    -2.7260     3.2710 ha         1 398       0.131000
     60 H51          4.9660    -3.5730     4.9640 ha         1 398       0.131000
     61 H52          2.6220    -2.8310     4.9270 ha         1 398       0.133000
     62 H451         0.8340    -1.9740     2.7760 hc         1 398       0.066700
     63 H452         1.1010    -1.0460     4.2580 hc         1 398       0.066700
     64 H2           3.2610     1.6060    -0.7180 ha         1 398       0.174000
     65 H5           2.0350    -1.6300    -4.2660 ha         1 398       0.155000
     66 H181         0.6750    -5.1660    -1.7140 h1         1 398       0.055950
     67 H182         0.6610    -6.8280    -1.1060 h1         1 398       0.055950
     68 H141        -0.2950    -7.1200     1.2390 h1         1 398       0.055950
     69 H142        -1.5940    -6.0070     1.6900 h1         1 398       0.055950
     70 H191         1.9270    -6.1560     0.8730 hc         1 398       0.053200
     71 H192         1.8550    -4.4590     0.3780 hc         1 398       0.053200
     72 H201         3.1540    -6.6720    -1.2510 hc         1 398       0.038950
     73 H202         3.1720    -4.9420    -1.6190 hc         1 398       0.038950
     74 H211         5.2520    -5.9520    -0.4310 hc         1 398       0.034367
     75 H212         4.2310    -5.9830     1.0130 hc         1 398       0.034367
     76 H213         4.5830    -4.4460     0.2120 hc         1 398       0.034367
     77 H151        -1.6080    -7.8590    -0.7220 hc         1 398       0.053200
     78 H152        -2.9070    -6.7450    -0.2720 hc         1 398       0.053200
     79 H161        -3.1760    -7.9300     1.8820 hc         1 398       0.038950
     80 H162        -1.8770    -9.0430     1.4320 hc         1 398       0.038950
     81 H171        -4.0820   -10.0490     0.9650 hc         1 398       0.034367
     82 H172        -3.1940    -9.7690    -0.5400 hc         1 398       0.034367
     83 H173        -4.4980    -8.6720    -0.0650 hc         1 398       0.034367
     84 H241        -0.4080    -0.3150    -4.1930 hc         1 398       0.057367
     85 H242        -0.0390    -1.8310    -5.0270 hc         1 398       0.057367
     86 H243        -1.7070    -1.4540    -4.5710 hc         1 398       0.057367
     87 H4           3.8740    -0.0430    -4.6360 ha         1 398       0.136000
     88 H27          5.1820     1.1960    -4.8270 hn         1 398       0.346500
     89 H36          8.8570     1.0540    -4.5000 ha         1 398       0.149000
     90 H32          7.2230     3.8190    -1.7050 ha         1 398       0.171000
     91 H37         10.9130    -0.2030    -3.9130 ha         1 398       0.147000
     92 H39         12.7440     0.4300    -0.1200 ha         1 398       0.145000
     93 H40         11.0160     2.0320     0.5110 ha         1 398       0.144000
     94 H33          8.9600     3.2890    -0.0760 ha         1 398       0.144000
@<TRIPOS>BOND
     1     1     2 2   
     2     2     3 1   
     3     2    13 1   
     4     3     4 1   
     5     3    12 1   
     6     4     5 1   
     7     5     6 ar  
     8     5    10 ar  
     9     6     7 ar  
    10     7     8 ar  
    11     8     9 ar  
    12     9    10 ar  
    13    10    11 1   
    14    11    12 1   
    15    13    14 ar  
    16    13    36 ar  
    17    14    15 1   
    18    14    33 ar  
    19    15    16 1   
    20    15    31 1   
    21    16    17 2   
    22    17    18 1   
    23    17    29 1   
    24    18    19 2   
    25    18    20 1   
    26    20    21 1   
    27    20    25 1   
    28    21    22 1   
    29    22    23 1   
    30    23    24 1   
    31    25    26 1   
    32    26    27 1   
    33    27    28 1   
    34    29    30 1   
    35    29    31 2   
    36    31    32 1   
    37    33    34 ar  
    38    34    35 ar  
    39    35    36 ar  
    40    35    37 1   
    41    37    38 2   
    42    37    39 1   
    43    39    40 1   
    44    40    41 2   
    45    40    42 2   
    46    40    43 1   
    47    43    44 ar  
    48    43    53 ar  
    49    44    45 ar  
    50    45    46 ar  
    51    45    51 ar  
    52    46    47 ar  
    53    47    48 1   
    54    47    49 ar  
    55    49    50 ar  
    56    50    51 ar  
    57    51    52 ar  
    58    52    53 ar  
    59     4    54 1   
    60     4    55 1   
    61    12    56 1   
    62    12    57 1   
    63     6    58 1   
    64     7    59 1   
    65     8    60 1   
    66     9    61 1   
    67    11    62 1   
    68    11    63 1   
    69    36    64 1   
    70    33    65 1   
    71    21    66 1   
    72    21    67 1   
    73    25    68 1   
    74    25    69 1   
    75    22    70 1   
    76    22    71 1   
    77    23    72 1   
    78    23    73 1   
    79    24    74 1   
    80    24    75 1   
    81    24    76 1   
    82    26    77 1   
    83    26    78 1   
    84    27    79 1   
    85    27    80 1   
    86    28    81 1   
    87    28    82 1   
    88    28    83 1   
    89    32    84 1   
    90    32    85 1   
    91    32    86 1   
    92    34    87 1   
    93    39    88 1   
    94    44    89 1   
    95    53    90 1   
    96    46    91 1   
    97    49    92 1   
    98    50    93 1   
    99    52    94 1   
@<TRIPOS>SUBSTRUCTURE
     1 398         1 TEMP              0 ****  ****    0 ROOT
