@<TRIPOS>MOLECULE
398
   94    99     1     0     0
SMALL
bcc


@<TRIPOS>ATOM
      1 O53          0.0000     0.0000     0.0000 o          1 398      -0.625100
      2 C42          1.2160     0.0000     0.0000 c          1 398       0.610700
      3 N43          1.8900     0.0000     1.1660 n          1 398      -0.136800
      4 C48          3.3520    -0.1120     1.2030 c3         1 398       0.098300
      5 C47          3.7590    -1.0930     2.2730 ca         1 398      -0.108300
      6 C49          5.0830    -1.5140     2.2950 ca         1 398      -0.096000
      7 C50          5.5180    -2.4030     3.2570 ca         1 398      -0.104000
      8 C51          4.6300    -2.8750     4.2060 ca         1 398      -0.095000
      9 C52          3.3160    -2.4600     4.1820 ca         1 398      -0.100000
     10 C46          2.8730    -1.5700     3.2110 ca         1 398      -0.065300
     11 C45          1.4180    -1.1830     3.2310 c3         1 398       0.012900
     12 C44          1.1890     0.1190     2.4560 c3         1 398       0.053000
     13 C1           1.9530    -0.0060    -1.2800 ca         1 398      -0.124600
     14 C6           1.6070    -0.9200    -2.2880 ca         1 398      -0.100200
     15 N7           0.5660    -1.8240    -2.0820 na         1 398       0.730300
     16 N11          0.4300    -2.5680    -1.0440 nc         1 398      -0.624800
     17 C10         -0.6540    -3.3080    -1.1540 cd         1 398       0.293800
     18 C12         -1.1500    -4.2890    -0.1670 c          1 398       0.537600
     19 O22         -2.1040    -4.0150     0.5370 o          1 398      -0.626100
     20 N13         -0.5470    -5.4880    -0.0460 n          1 398      -0.143800
     21 C18          0.6600    -5.7820    -0.8230 c3         1 398       0.046000
     22 C19          1.8980    -5.4820     0.0250 c3         1 398      -0.056900
     23 C20          3.1560    -5.6760    -0.8230 c3         1 398      -0.021900
     24 C21          4.3960    -5.5020     0.0570 c3         1 398       0.005400
     25 C14         -1.0970    -6.4980     0.8610 c3         1 398       0.046000
     26 C15         -2.1050    -7.3670     0.1060 c3         1 398      -0.056900
     27 C16         -2.6800    -8.4210     1.0540 c3         1 398      -0.021900
     28 C17         -3.6870    -9.2910     0.2980 c3         1 398       0.005400
     29 C9          -1.2560    -2.9870    -2.3950 cd         1 398      -0.183900
     30 Cl23        -2.7120    -3.6560    -3.0620 cl         1 398       0.036600
     31 C8          -0.4590    -2.0430    -2.9500 cc         1 398      -0.315600
     32 C24         -0.6680    -1.3630    -4.2790 c3         1 398       0.102200
     33 C5           2.3030    -0.9240    -3.4890 ca         1 398      -0.112000
     34 C4           3.3340    -0.0330    -3.6970 ca         1 398      -0.052000
     35 C3           3.6860     0.8820    -2.6990 ca         1 398      -0.166600
     36 C2           2.9900     0.8980    -1.4920 ca         1 398      -0.010000
     37 C25          4.7900     1.8340    -2.9290 c          1 398       0.669700
     38 O26          5.0970     2.6300    -2.0610 o          1 398      -0.604100
     39 N27          5.4600     1.8230    -4.0980 ns         1 398      -0.307300
     40 S28          6.6990     2.8910    -4.3540 sy         1 398       1.043900
     41 O29          7.2140     2.6060    -5.6470 o          1 398      -0.565800
     42 O30          6.2100     4.1700    -3.9780 o          1 398      -0.565800
     43 C31          7.9780     2.4900    -3.2090 ca         1 398      -0.155500
     44 C36          8.9400     1.5970    -3.5660 ca         1 398       0.042000
     45 C35          9.9620     1.2760    -2.6550 ca         1 398      -0.077000
     46 C37         10.9730     0.3580    -2.9880 ca         1 398      -0.054000
     47 C38         11.9460     0.0710    -2.0800 ca         1 398       0.189900
     48 I41         13.4520    -1.2990    -2.5790 i          1 398      -0.283900
     49 C39         11.9570     0.6760    -0.8240 ca         1 398      -0.064000
     50 C40         10.9940     1.5690    -0.4680 ca         1 398      -0.094000
     51 C34          9.9730     1.8900    -1.3780 ca         1 398       0.005000
     52 C33          8.9620     2.8080    -1.0470 ca         1 398      -0.114000
     53 C32          7.9920     3.0990    -1.9570 ca         1 398      -0.003000
     54 H481         3.6960    -0.4800     0.2440 h1         1 398       0.033700
     55 H482         3.7690     0.8580     1.4420 h1         1 398       0.033700
     56 H441         0.1290     0.2620     2.2840 h1         1 398       0.039700
     57 H442         1.5920     0.9540     3.0160 h1         1 398       0.039700
     58 H49          5.7780    -1.1440     1.5510 ha         1 398       0.103000
     59 H50          6.5520    -2.7260     3.2710 ha         1 398       0.104000
     60 H51          4.9660    -3.5730     4.9640 ha         1 398       0.104000
     61 H52          2.6220    -2.8310     4.9270 ha         1 398       0.108000
     62 H451         0.8340    -1.9740     2.7760 hc         1 398       0.036200
     63 H452         1.1010    -1.0460     4.2580 hc         1 398       0.036200
     64 H2           3.2610     1.6060    -0.7180 ha         1 398       0.141000
     65 H5           2.0350    -1.6300    -4.2660 ha         1 398       0.127000
     66 H181         0.6750    -5.1660    -1.7140 h1         1 398       0.029450
     67 H182         0.6610    -6.8280    -1.1060 h1         1 398       0.029450
     68 H141        -0.2950    -7.1200     1.2390 h1         1 398       0.029450
     69 H142        -1.5940    -6.0070     1.6900 h1         1 398       0.029450
     70 H191         1.9270    -6.1560     0.8730 hc         1 398       0.026450
     71 H192         1.8550    -4.4590     0.3780 hc         1 398       0.026450
     72 H201         3.1540    -6.6720    -1.2510 hc         1 398       0.010950
     73 H202         3.1720    -4.9420    -1.6190 hc         1 398       0.010950
     74 H211         5.2520    -5.9520    -0.4310 hc         1 398       0.001700
     75 H212         4.2310    -5.9830     1.0130 hc         1 398       0.001700
     76 H213         4.5830    -4.4460     0.2120 hc         1 398       0.001700
     77 H151        -1.6080    -7.8590    -0.7220 hc         1 398       0.026450
     78 H152        -2.9070    -6.7450    -0.2720 hc         1 398       0.026450
     79 H161        -3.1760    -7.9300     1.8820 hc         1 398       0.010950
     80 H162        -1.8770    -9.0430     1.4320 hc         1 398       0.010950
     81 H171        -4.0820   -10.0490     0.9650 hc         1 398       0.001700
     82 H172        -3.1940    -9.7690    -0.5400 hc         1 398       0.001700
     83 H173        -4.4980    -8.6720    -0.0650 hc         1 398       0.001700
     84 H241        -0.4080    -0.3150    -4.1930 hc         1 398       0.014700
     85 H242        -0.0390    -1.8310    -5.0270 hc         1 398       0.014700
     86 H243        -1.7070    -1.4540    -4.5710 hc         1 398       0.014700
     87 H4           3.8740    -0.0430    -4.6360 ha         1 398       0.108000
     88 H27          5.1820     1.1960    -4.8270 hn         1 398       0.236500
     89 H36          8.8570     1.0540    -4.5000 ha         1 398       0.120000
     90 H32          7.2230     3.8190    -1.7050 ha         1 398       0.145000
     91 H37         10.9130    -0.2030    -3.9130 ha         1 398       0.123000
     92 H39         12.7440     0.4300    -0.1200 ha         1 398       0.118000
     93 H40         11.0160     2.0320     0.5110 ha         1 398       0.115000
     94 H33          8.9600     3.2890    -0.0760 ha         1 398       0.116000
@<TRIPOS>BOND
     1     1     2 2   
     2     2     3 1   
     3     2    13 1   
     4     3     4 1   
     5     3    12 1   
     6     4     5 1   
     7     4    54 1   
     8     4    55 1   
     9     5     6 ar  
    10     5    10 ar  
    11     6     7 ar  
    12     6    58 1   
    13     7     8 ar  
    14     7    59 1   
    15     8     9 ar  
    16     8    60 1   
    17     9    10 ar  
    18     9    61 1   
    19    10    11 1   
    20    11    12 1   
    21    11    62 1   
    22    11    63 1   
    23    12    56 1   
    24    12    57 1   
    25    13    14 ar  
    26    13    36 ar  
    27    14    15 1   
    28    14    33 ar  
    29    15    16 1   
    30    15    31 1   
    31    16    17 2   
    32    17    18 1   
    33    17    29 1   
    34    18    19 2   
    35    18    20 1   
    36    20    21 1   
    37    20    25 1   
    38    21    22 1   
    39    21    66 1   
    40    21    67 1   
    41    22    23 1   
    42    22    70 1   
    43    22    71 1   
    44    23    24 1   
    45    23    72 1   
    46    23    73 1   
    47    24    74 1   
    48    24    75 1   
    49    24    76 1   
    50    25    26 1   
    51    25    68 1   
    52    25    69 1   
    53    26    27 1   
    54    26    77 1   
    55    26    78 1   
    56    27    28 1   
    57    27    79 1   
    58    27    80 1   
    59    28    81 1   
    60    28    82 1   
    61    28    83 1   
    62    29    30 1   
    63    29    31 2   
    64    31    32 1   
    65    32    84 1   
    66    32    85 1   
    67    32    86 1   
    68    33    34 ar  
    69    33    65 1   
    70    34    35 ar  
    71    34    87 1   
    72    35    36 ar  
    73    35    37 1   
    74    36    64 1   
    75    37    38 2   
    76    37    39 1   
    77    39    40 1   
    78    39    88 1   
    79    40    41 2   
    80    40    42 2   
    81    40    43 1   
    82    43    44 ar  
    83    43    53 ar  
    84    44    45 ar  
    85    44    89 1   
    86    45    46 ar  
    87    45    51 ar  
    88    46    47 ar  
    89    46    91 1   
    90    47    48 1   
    91    47    49 ar  
    92    49    50 ar  
    93    49    92 1   
    94    50    51 ar  
    95    50    93 1   
    96    51    52 ar  
    97    52    53 ar  
    98    52    94 1   
    99    53    90 1   
@<TRIPOS>SUBSTRUCTURE
     1 398         1 TEMP              0 ****  ****    0 ROOT
