@<TRIPOS>MOLECULE
39A
   22    23     1     0     0
SMALL
bcc


@<TRIPOS>ATOM
      1 N6           0.0000     0.0000     0.0000 nv         1 39A      -0.191100
      2 C6           1.3850     0.0000     0.0000 cc         1 39A       0.412300
      3 C5           2.1030     0.0000     1.2080 cc         1 39A       0.225000
      4 N7           1.7630     0.0000     2.5190 nc         1 39A      -0.524000
      5 C4           3.5070     0.0050     1.1440 cd         1 39A      -0.372000
      6 N9           3.9450    -0.0010     2.4430 na         1 39A       0.284100
      7 C8           2.8420    -0.0010     3.2450 cd         1 39A       0.348400
      8 C9M          5.3410    -0.0000     2.8880 c3         1 39A      -0.023400
      9 N3           4.0990    -0.0010    -0.0460 na         1 39A       0.117000
     10 C3M          5.5620    -0.0000    -0.1280 c3         1 39A       0.091100
     11 C2           3.3840    -0.0010    -1.1520 cd         1 39A       0.456100
     12 N1           2.0640     0.0000    -1.1420 nc         1 39A      -0.568000
     13 HN61        -0.5000     0.8670    -0.0150 hn         1 39A       0.160700
     14 HN62        -0.5000    -0.8670    -0.0150 hn         1 39A       0.160700
     15 H8           2.8620    -0.0020     4.3280 h5         1 39A       0.055100
     16 H9M1         5.8400    -0.8840     2.5110 h1         1 39A       0.046033
     17 H9M2         5.3750    -0.0000     3.9710 h1         1 39A       0.046033
     18 H9M3         5.8390     0.8850     2.5120 h1         1 39A       0.046033
     19 H3M1         5.9510     0.8850     0.3620 h1         1 39A       0.060367
     20 H3M2         5.9520    -0.8840     0.3620 h1         1 39A       0.060367
     21 H3M3         5.8660    -0.0000    -1.1680 h1         1 39A       0.060367
     22 H2           3.8990    -0.0010    -2.1060 h5         1 39A       0.049800
@<TRIPOS>BOND
     1     1     2 2   
     2     1    13 1   
     3     1    14 1   
     4     2     3 1   
     5     2    12 1   
     6     3     4 1   
     7     3     5 2   
     8     4     7 2   
     9     5     6 1   
    10     5     9 1   
    11     6     7 1   
    12     6     8 1   
    13     7    15 1   
    14     8    16 1   
    15     8    17 1   
    16     8    18 1   
    17     9    10 1   
    18     9    11 1   
    19    10    19 1   
    20    10    20 1   
    21    10    21 1   
    22    11    12 2   
    23    11    22 1   
@<TRIPOS>SUBSTRUCTURE
     1 39A         1 TEMP              0 ****  ****    0 ROOT
