@<TRIPOS>MOLECULE
molecule
   33    33     1     0     0
SMALL
bcc


@<TRIPOS>ATOM
      1 N22          0.0000     0.0000     0.0000 nz         1 39C      -0.799600
      2 C8           1.4700     0.0000     0.0000 c3         1 39C       0.002500
      3 C9           1.9720     0.0000     1.4210 c          1 39C       0.557100
      4 O20          1.2200     0.2720     2.3270 o          1 39C      -0.501100
      5 C10          3.4110    -0.3370     1.7110 c3         1 39C      -0.158700
      6 C11          3.5690    -1.8560     1.8100 c3         1 39C      -0.075100
      7 C12          3.8290     0.3060     3.0340 c3         1 39C       0.156400
      8 O13          5.2240     0.0840     3.2520 oh         1 39C      -0.602800
      9 C7           1.9790     1.2480    -0.7220 c3         1 39C      -0.042100
     10 C6           1.5800     1.1880    -2.1740 ca         1 39C      -0.156300
     11 C5           2.4170     0.5880    -3.0960 ca         1 39C      -0.132500
     12 C4           2.0520     0.5320    -4.4290 ca         1 39C      -0.105500
     13 C3           0.8490     1.0760    -4.8380 ca         1 39C      -0.095000
     14 C2           0.0120     1.6750    -3.9160 ca         1 39C      -0.105500
     15 C1           0.3750     1.7260    -2.5830 ca         1 39C      -0.132500
     16 H28         -0.3340    -0.3320    -0.8830 hn         1 39C       0.461467
     17 H29          1.8300    -0.8850    -0.5100 hx         1 39C       0.133700
     18 H35          3.4680    -2.1630     2.8440 hc         1 39C       0.055700
     19 H36          4.5460    -2.1430     1.4420 hc         1 39C       0.055700
     20 H37          2.8030    -2.3390     1.2150 hc         1 39C       0.055700
     21 H38          3.2630    -0.1350     3.8450 h1         1 39C       0.040700
     22 H39          3.6350     1.3710     2.9950 h1         1 39C       0.040700
     23 H40          5.5250     0.6390     3.9530 ho         1 39C       0.427000
     24 H45          3.0590     1.2940    -0.6460 hc         1 39C       0.093200
     25 H46          1.5480     2.1310    -0.2660 hc         1 39C       0.093200
     26 H47          3.3600     0.1620    -2.7750 ha         1 39C       0.128500
     27 H48          2.7090     0.0630    -5.1510 ha         1 39C       0.155000
     28 H49          0.5630     1.0340    -5.8820 ha         1 39C       0.158000
     29 H50         -0.9320     2.0980    -4.2370 ha         1 39C       0.155000
     30 H51         -0.2810     2.1950    -1.8610 ha         1 39C       0.128500
     31 H2          -0.3340     0.9310     0.1540 hn         1 39C       0.461467
     32 H32          4.0390     0.0390     0.9130 hc         1 39C       0.085700
     33 H223        -0.3340    -0.6010     0.7270 hn         1 39C       0.461467
@<TRIPOS>BOND
     1     5     3 1
     2     5     6 1
     3     5     7 1
     4     3     4 2
     5     3     2 1
     6     9     2 1
     7     9    10 1
     8     7     8 1
     9     2     1 1
    10    11    10 ar
    11    11    12 ar
    12    10    15 ar
    13    12    13 ar
    14    15    14 ar
    15    13    14 ar
    16     1    16 1
    17     2    17 1
    18     9    24 1
    19     9    25 1
    20    15    30 1
    21    14    29 1
    22    13    28 1
    23    12    27 1
    24    11    26 1
    25     5    32 1
    26     6    18 1
    27     6    19 1
    28     6    20 1
    29     7    21 1
    30     7    22 1
    31     8    23 1
    32     1    31 1
    33    33     1 1
@<TRIPOS>SUBSTRUCTURE
     1 39C         1 TEMP              0 ****  ****    0 ROOT
