@<TRIPOS>MOLECULE
molecule
   66    69     1     0     0
SMALL
bcc


@<TRIPOS>ATOM
      1 C18          0.0000     0.0000     0.0000 c3         1 39D      -0.064900
      2 C17          1.5300     0.0000     0.0000 c3         1 39D      -0.147700
      3 C15          2.0330     1.2300    -0.7100 c          1 39D       0.664100
      4 C19         -0.5110    -1.2490     0.7210 c3         1 39D      -0.081400
      5 C20         -0.0010    -1.2480     2.1640 c3         1 39D      -0.104700
      6 C21          1.5300    -1.2490     2.1640 c3         1 39D      -0.081400
      7 C22          2.0390     0.0000     1.4420 c3         1 39D      -0.064900
      8 C23         -0.5120    -2.4970     2.8860 c3         1 39D       0.094800
      9 C11          5.2280     2.3760    -2.0680 cc         1 39D       0.408800
     10 C12          3.8460     2.6390    -1.5250 c3         1 39D       0.109400
     11 C27         10.4780     3.1900    -4.6620 ca         1 39D      -0.059500
     12 C1           2.5000     4.1510    -0.0940 ca         1 39D      -0.080300
     13 C2           1.9640     3.5390     1.0230 ca         1 39D      -0.118000
     14 C3           0.6840     3.8570     1.4370 ca         1 39D      -0.119500
     15 C4          -0.0590     4.7870     0.7350 ca         1 39D      -0.113000
     16 C5           0.4780     5.3990    -0.3820 ca         1 39D      -0.119500
     17 C6           1.7570     5.0820    -0.7970 ca         1 39D      -0.118000
     18 N7           5.9910     3.2540    -2.6540 nd         1 39D      -0.671000
     19 C8           7.1530     2.6680    -3.0080 cd         1 39D       0.328800
     20 C9           7.0960     1.3650    -2.6160 cc         1 39D      -0.211600
     21 N10          5.8820     1.1880    -2.0170 na         1 39D      -0.287900
     22 N13          3.3580     1.4420    -0.8350 ns         1 39D      -0.597900
     23 C14          3.8980     3.8100    -0.5420 c3         1 39D      -0.041100
     24 O16          1.2450     2.0280    -1.1720 o          1 39D      -0.558100
     25 N24         -0.1230    -2.4380     4.3010 nz         1 39D      -0.810600
     26 C25          8.2880     3.3230    -3.6990 ca         1 39D      -0.000500
     27 C26          9.4290     2.5850    -4.0190 ca         1 39D      -0.118000
     28 C28         10.4030     4.5450    -4.9990 ca         1 39D      -0.231600
     29 C29          9.2580     5.2800    -4.6830 ca         1 39D      -0.059500
     30 C30          8.2090     4.6730    -4.0430 ca         1 39D      -0.118000
     31 C31         11.5350     5.1980    -5.6870 c          1 39D       0.507700
     32 O32         12.5300     4.5570    -5.9610 o          1 39D      -0.422100
     33 N33         11.4620     6.5040    -6.0120 nz         1 39D      -0.678400
     34 H46         -0.3600    -0.0030    -1.0220 hc         1 39D       0.071200
     35 H47         -0.3600     0.8840     0.5120 hc         1 39D       0.071200
     36 H45          1.8890    -0.8870    -0.5070 hc         1 39D       0.068700
     37 H49         -0.1480    -2.1330     0.2120 hc         1 39D       0.050950
     38 H48         -1.5950    -1.2450     0.7230 hc         1 39D       0.050950
     39 H50         -0.3590    -0.3610     2.6720 hc         1 39D       0.074700
     40 H51          1.8890    -2.1330     1.6520 hc         1 39D       0.050950
     41 H52          1.8900    -1.2460     3.1860 hc         1 39D       0.050950
     42 H53          1.6750     0.8840     1.9520 hc         1 39D       0.071200
     43 H54          3.1230    -0.0020     1.4410 hc         1 39D       0.071200
     44 H55         -0.0800    -3.3800     2.4290 hx         1 39D       0.114200
     45 H56         -1.5910    -2.5430     2.8090 hx         1 39D       0.114200
     46 H41          3.1780     2.8820    -2.3420 h1         1 39D       0.116700
     47 H34          2.5470     2.8110     1.5730 ha         1 39D       0.120500
     48 H35          0.2640     3.3780     2.3130 ha         1 39D       0.127000
     49 H36         -1.0620     5.0360     1.0600 ha         1 39D       0.135000
     50 H37         -0.1040     6.1280    -0.9330 ha         1 39D       0.127000
     51 H38          2.1780     5.5610    -1.6720 ha         1 39D       0.120500
     52 H39          7.8680     0.6160    -2.7470 h4         1 39D       0.188000
     53 H40          5.5350     0.3370    -1.6210 hn         1 39D       0.306700
     54 H42          4.0080     0.7690    -0.4800 hn         1 39D       0.299500
     55 H43          4.4950     3.5330     0.3180 hc         1 39D       0.066200
     56 H44          4.3420     4.6700    -1.0280 hc         1 39D       0.066200
     57 H57         -0.7250    -3.0320     4.8380 hn         1 39D       0.458133
     58 H58          0.8240    -2.7470     4.4000 hn         1 39D       0.458133
     59 H59          9.4870     1.5360    -3.7580 ha         1 39D       0.170000
     60 H61          9.1970     6.3290    -4.9470 ha         1 39D       0.141000
     61 H62          7.3210     5.2430    -3.7980 ha         1 39D       0.170000
     62 H64         11.3380     7.0480    -5.1810 hn         1 39D       0.478133
     63 H63         10.6870     6.6530    -6.6270 hn         1 39D       0.478133
     64 H243        -0.2070    -1.4970     4.6310 hn         1 39D       0.458133
     65 H333        12.3080     6.7810    -6.4710 hn         1 39D       0.478133
     66 H60         11.3640     2.6190    -4.9090 ha         1 39D       0.141000
@<TRIPOS>BOND
     1     4     1 1
     2     4     5 1
     3    25     8 1
     4    21    20 1
     5    21     9 1
     6    17    16 ar
     7    17    12 ar
     8     1     2 1
     9     8     5 1
    10    23    12 1
    11    23    10 1
    12    20    19 2
    13    16    15 ar
    14    22    10 1
    15    22     3 1
    16     5     6 1
    17     2     3 1
    18     2     7 1
    19    12    13 ar
    20    10     9 1
    21     9    18 2
    22     6     7 1
    23     3    24 2
    24    19    18 1
    25    19    26 1
    26    15    14 ar
    27    13    14 ar
    28    27    26 ar
    29    27    11 ar
    30    26    30 ar
    31    11    28 ar
    32    30    29 ar
    33    28    29 ar
    34    28    31 1
    35    32    31 2
    36    31    33 1
    37     1    34 1
    38     1    35 1
    39     2    36 1
    40     4    37 1
    41     4    38 1
    42     5    39 1
    43     6    40 1
    44     6    41 1
    45     7    42 1
    46     7    43 1
    47     8    44 1
    48     8    45 1
    49    10    46 1
    50    11    66 1
    51    13    47 1
    52    14    48 1
    53    15    49 1
    54    16    50 1
    55    17    51 1
    56    20    52 1
    57    21    53 1
    58    22    54 1
    59    23    55 1
    60    23    56 1
    61    25    57 1
    62    25    58 1
    63    27    59 1
    64    29    60 1
    65    30    61 1
    66    33    62 1
    67    33    63 1
    68    64    25 1
    69    65    33 1
@<TRIPOS>SUBSTRUCTURE
     1 39D         1 TEMP              0 ****  ****    0 ROOT
