@<TRIPOS>MOLECULE
39D
   66    69     1     0     0
SMALL
bcc


@<TRIPOS>ATOM
      1 C18          0.0000     0.0000     0.0000 c3         1 39D      -0.013900
      2 C17          1.5300     0.0000     0.0000 c3         1 39D      -0.124700
      3 C15          2.0330     1.2300    -0.7100 c          1 39D       0.580100
      4 C19         -0.5110    -1.2490     0.7210 c3         1 39D      -0.022400
      5 C20         -0.0010    -1.2480     2.1640 c3         1 39D      -0.070700
      6 C21          1.5300    -1.2490     2.1640 c3         1 39D      -0.022400
      7 C22          2.0390     0.0000     1.4420 c3         1 39D      -0.013900
      8 C23         -0.5120    -2.4970     2.8860 c3         1 39D      -0.050200
      9 C11          5.2280     2.3760    -2.0680 cc         1 39D       0.177800
     10 C12          3.8460     2.6390    -1.5250 c3         1 39D       0.025400
     11 C27         10.4780     3.1900    -4.6620 ca         1 39D      -0.021500
     12 C1           2.5000     4.1510    -0.0940 ca         1 39D      -0.088300
     13 C2           1.9640     3.5390     1.0230 ca         1 39D      -0.096000
     14 C3           0.6840     3.8570     1.4370 ca         1 39D      -0.089000
     15 C4          -0.0590     4.7870     0.7350 ca         1 39D      -0.085000
     16 C5           0.4780     5.3990    -0.3820 ca         1 39D      -0.089000
     17 C6           1.7570     5.0820    -0.7970 ca         1 39D      -0.096000
     18 N7           5.9910     3.2540    -2.6540 nd         1 39D      -0.567000
     19 C8           7.1530     2.6680    -3.0080 cd         1 39D       0.300800
     20 C9           7.0960     1.3650    -2.6160 cc         1 39D      -0.385600
     21 N10          5.8820     1.1880    -2.0170 na         1 39D       0.268100
     22 N13          3.3580     1.4420    -0.8350 ns         1 39D      -0.221900
     23 C14          3.8980     3.8100    -0.5420 c3         1 39D       0.021900
     24 O16          1.2450     2.0280    -1.1720 o          1 39D      -0.592100
     25 N24         -0.1230    -2.4380     4.3010 nz         1 39D       0.079400
     26 C25          8.2880     3.3230    -3.6990 ca         1 39D       0.011500
     27 C26          9.4290     2.5850    -4.0190 ca         1 39D      -0.094500
     28 C28         10.4030     4.5450    -4.9990 ca         1 39D      -0.259600
     29 C29          9.2580     5.2800    -4.6830 ca         1 39D      -0.021500
     30 C30          8.2090     4.6730    -4.0430 ca         1 39D      -0.094500
     31 C31         11.5350     5.1980    -5.6870 c          1 39D       0.358700
     32 O32         12.5300     4.5570    -5.9610 o          1 39D      -0.435100
     33 N33         11.4620     6.5040    -6.0120 nz         1 39D       0.200600
     34 H46         -0.3600    -0.0030    -1.0220 hc         1 39D       0.040700
     35 H47         -0.3600     0.8840     0.5120 hc         1 39D       0.040700
     36 H45          1.8890    -0.8870    -0.5070 hc         1 39D       0.041700
     37 H49         -0.1480    -2.1330     0.2120 hc         1 39D       0.021200
     38 H48         -1.5950    -1.2450     0.7230 hc         1 39D       0.021200
     39 H50         -0.3590    -0.3610     2.6720 hc         1 39D       0.050700
     40 H51          1.8890    -2.1330     1.6520 hc         1 39D       0.021200
     41 H52          1.8900    -1.2460     3.1860 hc         1 39D       0.021200
     42 H53          1.6750     0.8840     1.9520 hc         1 39D       0.040700
     43 H54          3.1230    -0.0020     1.4410 hc         1 39D       0.040700
     44 H55         -0.0800    -3.3800     2.4290 hx         1 39D       0.088200
     45 H56         -1.5910    -2.5430     2.8090 hx         1 39D       0.088200
     46 H41          3.1780     2.8820    -2.3420 h1         1 39D       0.082700
     47 H34          2.5470     2.8110     1.5730 ha         1 39D       0.097500
     48 H35          0.2640     3.3780     2.3130 ha         1 39D       0.099000
     49 H36         -1.0620     5.0360     1.0600 ha         1 39D       0.107000
     50 H37         -0.1040     6.1280    -0.9330 ha         1 39D       0.099000
     51 H38          2.1780     5.5610    -1.6720 ha         1 39D       0.097500
     52 H39          7.8680     0.6160    -2.7470 h4         1 39D       0.164000
     53 H40          5.5350     0.3370    -1.6210 hn         1 39D       0.126700
     54 H42          4.0080     0.7690    -0.4800 hn         1 39D       0.161500
     55 H43          4.4950     3.5330     0.3180 hc         1 39D       0.033200
     56 H44          4.3420     4.6700    -1.0280 hc         1 39D       0.033200
     57 H57         -0.7250    -3.0320     4.8380 hn         1 39D       0.226133
     58 H58          0.8240    -2.7470     4.4000 hn         1 39D       0.226133
     59 H59          9.4870     1.5360    -3.7580 ha         1 39D       0.137500
     60 H61          9.1970     6.3290    -4.9470 ha         1 39D       0.107500
     61 H62          7.3210     5.2430    -3.7980 ha         1 39D       0.137500
     62 H64         11.3380     7.0480    -5.1810 hn         1 39D       0.247133
     63 H63         10.6870     6.6530    -6.6270 hn         1 39D       0.247133
     64 H243        -0.2070    -1.4970     4.6310 hn         1 39D       0.226133
     65 H333        12.3080     6.7810    -6.4710 hn         1 39D       0.247133
     66 H60         11.3640     2.6190    -4.9090 ha         1 39D       0.107500
@<TRIPOS>BOND
     1     1     2 1   
     2     1     4 1   
     3     1    34 1   
     4     1    35 1   
     5     2     3 1   
     6     2     7 1   
     7     2    36 1   
     8     3    22 1   
     9     3    24 2   
    10     4     5 1   
    11     4    37 1   
    12     4    38 1   
    13     5     6 1   
    14     5     8 1   
    15     5    39 1   
    16     6     7 1   
    17     6    40 1   
    18     6    41 1   
    19     7    42 1   
    20     7    43 1   
    21     8    25 1   
    22     8    44 1   
    23     8    45 1   
    24     9    10 1   
    25     9    18 2   
    26     9    21 1   
    27    10    22 1   
    28    10    23 1   
    29    10    46 1   
    30    11    27 ar  
    31    11    28 ar  
    32    11    66 1   
    33    12    13 ar  
    34    12    17 ar  
    35    12    23 1   
    36    13    14 ar  
    37    13    47 1   
    38    14    15 ar  
    39    14    48 1   
    40    15    16 ar  
    41    15    49 1   
    42    16    17 ar  
    43    16    50 1   
    44    17    51 1   
    45    18    19 1   
    46    19    20 2   
    47    19    26 1   
    48    20    21 1   
    49    20    52 1   
    50    21    53 1   
    51    22    54 1   
    52    23    55 1   
    53    23    56 1   
    54    25    57 1   
    55    25    58 1   
    56    25    64 1   
    57    26    27 ar  
    58    26    30 ar  
    59    27    59 1   
    60    28    29 ar  
    61    28    31 1   
    62    29    30 ar  
    63    29    60 1   
    64    30    61 1   
    65    31    32 2   
    66    31    33 1   
    67    33    62 1   
    68    33    63 1   
    69    33    65 1   
@<TRIPOS>SUBSTRUCTURE
     1 39D         1 TEMP              0 ****  ****    0 ROOT
