@<TRIPOS>MOLECULE
molecule
   66    70     1     0     0
SMALL
bcc


@<TRIPOS>ATOM
      1 C13          0.0000     0.0000     0.0000 cc         1 39F       0.416800
      2 C18          4.0400     1.2510     5.9310 c3         1 39F      -0.064400
      3 C17          2.2440    -0.3500     5.3300 c          1 39F       0.663100
      4 C16          0.6280    -0.0010     2.0690 cd         1 39F       0.388800
      5 C15          1.3600     0.0000     0.0000 cd         1 39F      -0.117200
      6 C19          3.7080    -0.8300     7.2730 c3         1 39F      -0.064400
      7 C20          5.4640     1.3760     6.4780 c3         1 39F      -0.081400
      8 C21          5.1300    -0.7050     7.8200 c3         1 39F      -0.081400
      9 C22          3.6460    -0.2260     5.8690 c3         1 39F      -0.149700
     10 C23          5.5250     0.7720     7.8830 c3         1 39F      -0.104700
     11 C24         -0.2520     1.1790     4.0650 c3         1 39F      -0.044100
     12 C11         -0.3930     1.1090     5.5630 ca         1 39F      -0.070300
     13 C12         -2.8960    -0.7060    -2.3010 ca         1 39F      -0.036000
     14 C1          -0.6520     0.9800     8.3130 ca         1 39F      -0.121000
     15 C2          -1.5790     0.3520     7.5020 ca         1 39F      -0.123500
     16 C3           0.4060     1.6670     7.7510 ca         1 39F      -0.123500
     17 C4          -1.2340     0.7250    -3.4670 ca         1 39F      -0.045000
     18 C5          -0.4710     0.6980    -2.3480 ca         1 39F      -0.164000
     19 C6          -1.4490     0.4170     6.1260 ca         1 39F      -0.117500
     20 C7           0.5360     1.7320     6.3760 ca         1 39F      -0.117500
     21 C8          -2.0640    -0.7000    -1.1630 ca         1 39F      -0.070000
     22 C9          -2.4620     0.0350    -3.4970 ca         1 39F      -0.198000
     23 C10         -0.8740    -0.0060    -1.1980 ca         1 39F      -0.094500
     24 C14         -3.4610    -0.1430    -4.4500 cc         1 39F       0.171900
     25 C25          6.9480     0.8980     8.4300 c3         1 39F       0.093800
     26 C26          0.5880    -0.0020     3.5760 c3         1 39F       0.114400
     27 N27         -4.4150    -0.9140    -3.9030 na         1 39F       0.011800
     28 N28          1.7530     0.0000     1.3090 na         1 39F      -0.299900
     29 N29         -4.0610    -1.2560    -2.5930 nc         1 39F      -0.268400
     30 N30         -0.4130    -0.0020     1.2850 nc         1 39F      -0.659000
     31 N31         -3.4690     0.3820    -5.7330 nv         1 39F      -0.959600
     32 N32          7.2830     2.3170     8.6020 nz         1 39F      -0.809600
     33 N33          1.9510     0.1180     4.1000 ns         1 39F      -0.592900
     34 O34          1.3790    -0.8690     6.0020 o          1 39F      -0.565100
     35 Cl1          2.3960     0.0000    -1.3930 cl         1 39F      -0.037400
     36 H3           3.0240    -0.2990     7.9230 hc         1 39F       0.072450
     37 H4           3.4310    -1.8770     7.2260 hc         1 39F       0.072450
     38 H5           6.1470     0.8440     5.8270 hc         1 39F       0.048700
     39 H6           5.7410     2.4220     6.5240 hc         1 39F       0.048700
     40 H7           5.8150    -1.2330     7.1670 hc         1 39F       0.048700
     41 H8           5.1710    -1.1310     8.8160 hc         1 39F       0.048700
     42 H9           4.3340    -0.7540     5.2200 hc         1 39F       0.068700
     43 H10          4.8360     1.3000     8.5310 hc         1 39F       0.074700
     44 H11          0.2360     2.1070     3.7910 hc         1 39F       0.072200
     45 H12         -1.2330     1.1390     3.6070 hc         1 39F       0.072200
     46 H13         -0.7540     0.9290     9.3900 ha         1 39F       0.128000
     47 H14         -2.4070    -0.1880     7.9430 ha         1 39F       0.121500
     48 H15          1.1330     2.1580     8.3870 ha         1 39F       0.121500
     49 H16         -0.9000     1.2750    -4.3380 ha         1 39F       0.131000
     50 H17          0.4710     1.2320    -2.3380 ha         1 39F       0.132000
     51 H18         -2.1750    -0.0750     5.4900 ha         1 39F       0.123500
     52 H19          1.3650     2.2710     5.9350 ha         1 39F       0.123500
     53 H20         -2.2890    -1.3480    -0.3250 ha         1 39F       0.152000
     54 H21          7.6440     0.4450     7.7340 hx         1 39F       0.111700
     55 H22          7.0140     0.3930     9.3860 hx         1 39F       0.111700
     56 H23          0.1470    -0.9280     3.9250 h1         1 39F       0.112700
     57 H24         -5.2560    -1.2010    -4.3640 hn         1 39F       0.329700
     58 H25          2.6960    -0.0000     1.6450 hn         1 39F       0.294700
     59 H27         -3.8910     1.2730    -5.9060 hn         1 39F       0.441800
     60 H28         -3.0810    -0.1440    -6.4910 hn         1 39F       0.441800
     61 H29          8.0290     2.4050     9.2640 hn         1 39F       0.456800
     62 H30          7.5690     2.7020     7.7240 hn         1 39F       0.456800
     63 H32          2.6720     0.5170     3.5320 hn         1 39F       0.301500
     64 H1           3.9990     1.6770     4.9360 hc         1 39F       0.072450
     65 H323         6.4770     2.8130     8.9260 hn         1 39F       0.456800
     66 H2           3.3560     1.7790     6.5840 hc         1 39F       0.072450
@<TRIPOS>BOND
     1    35     5 1   
     2     8     6 1   
     3     8    10 1   
     4    32    25 1   
     5    28     5 1   
     6    28     4 1   
     7    19    15 ar  
     8    19    12 ar  
     9     6     9 1   
    10    25    10 1   
    11     5     1 2   
    12    11    12 1   
    13    11    26 1   
    14    15    14 ar  
    15    33    26 1   
    16    33     3 1   
    17    10     7 1   
    18     9     3 1   
    19     9     2 1   
    20    12    20 ar  
    21     4    26 1   
    22     4    30 2   
    23     7     2 1   
    24     3    34 2   
    25     1    30 1   
    26     1    23 1   
    27    14    16 ar  
    28    20    16 ar  
    29    21    23 ar  
    30    21    13 ar  
    31    23    18 ar  
    32    29    13 2   
    33    29    27 1   
    34    13    22 ar  
    35    18    17 ar  
    36    27    24 1   
    37    22    17 ar  
    38    22    24 2   
    39    24    31 1   
    40     2    64 1   
    41     2    66 1   
    42     6    36 1   
    43     6    37 1   
    44     7    38 1   
    45     7    39 1   
    46     8    40 1   
    47     8    41 1   
    48     9    42 1   
    49    10    43 1   
    50    11    44 1   
    51    11    45 1   
    52    14    46 1   
    53    15    47 1   
    54    16    48 1   
    55    17    49 1   
    56    18    50 1   
    57    19    51 1   
    58    20    52 1   
    59    21    53 1   
    60    25    54 1   
    61    25    55 1   
    62    26    56 1   
    63    27    57 1   
    64    28    58 1   
    65    31    59 1   
    66    31    60 1   
    67    32    61 1   
    68    32    62 1   
    69    33    63 1   
    70    65    32 1   
@<TRIPOS>SUBSTRUCTURE
     1 39F         1 TEMP              0 ****  ****    0 ROOT
