@<TRIPOS>MOLECULE
39F
   66    70     1     0     0
SMALL
bcc


@<TRIPOS>ATOM
      1 C13          0.0000     0.0000     0.0000 cc         1 39F       0.393800
      2 C18          4.0400     1.2510     5.9310 c3         1 39F      -0.013900
      3 C17          2.2440    -0.3500     5.3300 c          1 39F       0.577100
      4 C16          0.6280    -0.0010     2.0690 cd         1 39F       0.157800
      5 C15          1.3600     0.0000     0.0000 cd         1 39F      -0.392200
      6 C19          3.7080    -0.8300     7.2730 c3         1 39F      -0.013900
      7 C20          5.4640     1.3760     6.4780 c3         1 39F      -0.022400
      8 C21          5.1300    -0.7050     7.8200 c3         1 39F      -0.022400
      9 C22          3.6460    -0.2260     5.8690 c3         1 39F      -0.125700
     10 C23          5.5250     0.7720     7.8830 c3         1 39F      -0.070700
     11 C24         -0.2520     1.1790     4.0650 c3         1 39F       0.016900
     12 C11         -0.3930     1.1090     5.5630 ca         1 39F      -0.076300
     13 C12         -2.8960    -0.7060    -2.3010 ca         1 39F      -0.004000
     14 C1          -0.6520     0.9800     8.3130 ca         1 39F      -0.095000
     15 C2          -1.5790     0.3520     7.5020 ca         1 39F      -0.094000
     16 C3           0.4060     1.6670     7.7510 ca         1 39F      -0.094000
     17 C4          -1.2340     0.7250    -3.4670 ca         1 39F      -0.013000
     18 C5          -0.4710     0.6980    -2.3480 ca         1 39F      -0.150000
     19 C6          -1.4490     0.4170     6.1260 ca         1 39F      -0.095500
     20 C7           0.5360     1.7320     6.3760 ca         1 39F      -0.095500
     21 C8          -2.0640    -0.7000    -1.1630 ca         1 39F      -0.047000
     22 C9          -2.4620     0.0350    -3.4970 ca         1 39F      -0.201000
     23 C10         -0.8740    -0.0060    -1.1980 ca         1 39F      -0.100500
     24 C14         -3.4610    -0.1430    -4.4500 cc         1 39F      -0.152100
     25 C25          6.9480     0.8980     8.4300 c3         1 39F      -0.051200
     26 C26          0.5880    -0.0020     3.5760 c3         1 39F       0.031400
     27 N27         -4.4150    -0.9140    -3.9030 na         1 39F       0.540800
     28 N28          1.7530     0.0000     1.3090 na         1 39F       0.248100
     29 N29         -4.0610    -1.2560    -2.5930 nc         1 39F      -0.434400
     30 N30         -0.4130    -0.0020     1.2850 nc         1 39F      -0.566000
     31 N31         -3.4690     0.3820    -5.7330 nv         1 39F      -0.502600
     32 N32          7.2830     2.3170     8.6020 nz         1 39F       0.079400
     33 N33          1.9510     0.1180     4.1000 ns         1 39F      -0.212900
     34 O34          1.3790    -0.8690     6.0020 o          1 39F      -0.601100
     35 Cl1          2.3960     0.0000    -1.3930 cl         1 39F       0.070600
     36 H3           3.0240    -0.2990     7.9230 hc         1 39F       0.042450
     37 H4           3.4310    -1.8770     7.2260 hc         1 39F       0.042450
     38 H5           6.1470     0.8440     5.8270 hc         1 39F       0.019200
     39 H6           5.7410     2.4220     6.5240 hc         1 39F       0.019200
     40 H7           5.8150    -1.2330     7.1670 hc         1 39F       0.019200
     41 H8           5.1710    -1.1310     8.8160 hc         1 39F       0.019200
     42 H9           4.3340    -0.7540     5.2200 hc         1 39F       0.041700
     43 H10          4.8360     1.3000     8.5310 hc         1 39F       0.050700
     44 H11          0.2360     2.1070     3.7910 hc         1 39F       0.038700
     45 H12         -1.2330     1.1390     3.6070 hc         1 39F       0.038700
     46 H13         -0.7540     0.9290     9.3900 ha         1 39F       0.100000
     47 H14         -2.4070    -0.1880     7.9430 ha         1 39F       0.094500
     48 H15          1.1330     2.1580     8.3870 ha         1 39F       0.094500
     49 H16         -0.9000     1.2750    -4.3380 ha         1 39F       0.099000
     50 H17          0.4710     1.2320    -2.3380 ha         1 39F       0.107000
     51 H18         -2.1750    -0.0750     5.4900 ha         1 39F       0.100500
     52 H19          1.3650     2.2710     5.9350 ha         1 39F       0.100500
     53 H20         -2.2890    -1.3480    -0.3250 ha         1 39F       0.123000
     54 H21          7.6440     0.4450     7.7340 hx         1 39F       0.086700
     55 H22          7.0140     0.3930     9.3860 hx         1 39F       0.086700
     56 H23          0.1470    -0.9280     3.9250 h1         1 39F       0.078700
     57 H24         -5.2560    -1.2010    -4.3640 hn         1 39F       0.139700
     58 H25          2.6960    -0.0000     1.6450 hn         1 39F       0.115700
     59 H27         -3.8910     1.2730    -5.9060 hn         1 39F       0.276300
     60 H28         -3.0810    -0.1440    -6.4910 hn         1 39F       0.276300
     61 H29          8.0290     2.4050     9.2640 hn         1 39F       0.224800
     62 H30          7.5690     2.7020     7.7240 hn         1 39F       0.224800
     63 H32          2.6720     0.5170     3.5320 hn         1 39F       0.162500
     64 H1           3.9990     1.6770     4.9360 hc         1 39F       0.042450
     65 H323         6.4770     2.8130     8.9260 hn         1 39F       0.224800
     66 H2           3.3560     1.7790     6.5840 hc         1 39F       0.042450
@<TRIPOS>BOND
     1     1     5 2   
     2     1    23 1   
     3     1    30 1   
     4     2     7 1   
     5     2     9 1   
     6     2    64 1   
     7     2    66 1   
     8     3     9 1   
     9     3    33 1   
    10     3    34 2   
    11     4    26 1   
    12     4    28 1   
    13     4    30 2   
    14     5    28 1   
    15     5    35 1   
    16     6     8 1   
    17     6     9 1   
    18     6    36 1   
    19     6    37 1   
    20     7    10 1   
    21     7    38 1   
    22     7    39 1   
    23     8    10 1   
    24     8    40 1   
    25     8    41 1   
    26     9    42 1   
    27    10    25 1   
    28    10    43 1   
    29    11    12 1   
    30    11    26 1   
    31    11    44 1   
    32    11    45 1   
    33    12    19 ar  
    34    12    20 ar  
    35    13    21 ar  
    36    13    22 ar  
    37    13    29 2   
    38    14    15 ar  
    39    14    16 ar  
    40    14    46 1   
    41    15    19 ar  
    42    15    47 1   
    43    16    20 ar  
    44    16    48 1   
    45    17    18 ar  
    46    17    22 ar  
    47    17    49 1   
    48    18    23 ar  
    49    18    50 1   
    50    19    51 1   
    51    20    52 1   
    52    21    23 ar  
    53    21    53 1   
    54    22    24 2   
    55    24    27 1   
    56    24    31 1   
    57    25    32 1   
    58    25    54 1   
    59    25    55 1   
    60    26    33 1   
    61    26    56 1   
    62    27    29 1   
    63    27    57 1   
    64    28    58 1   
    65    31    59 1   
    66    31    60 1   
    67    32    61 1   
    68    32    62 1   
    69    32    65 1   
    70    33    63 1   
@<TRIPOS>SUBSTRUCTURE
     1 39F         1 TEMP              0 ****  ****    0 ROOT
