@<TRIPOS>MOLECULE
molecule
   56    58     1     0     0
SMALL
bcc


@<TRIPOS>ATOM
      1 C1           0.0000     0.0000     0.0000 c3         1 39G      -0.091100
      2 C2           1.5300     0.0000     0.0000 c3         1 39G      -0.075400
      3 C3           2.0400     0.0000     1.4430 c3         1 39G      -0.035100
      4 C9           3.7110    -2.5610     1.3930 ca         1 39G       0.019800
      5 C10          2.6510    -2.8930     2.2270 ca         1 39G      -0.124000
      6 C11          2.1200    -4.1680     2.1920 ca         1 39G      -0.117000
      7 C12          2.6410    -5.1120     1.3270 ca         1 39G      -0.125000
      8 C13          3.6950    -4.7850     0.4940 ca         1 39G      -0.117000
      9 C14          4.2310    -3.5120     0.5250 ca         1 39G      -0.124000
     10 C15          4.1250     2.3570     1.5140 c          1 39G       0.713700
     11 C19          3.6400     5.1170     2.0320 ca         1 39G      -0.029000
     12 C20          3.3480     6.4640     1.9640 ca         1 39G      -0.303500
     13 C21          4.2220     7.3320     1.3370 ca         1 39G      -0.046000
     14 C22          5.3920     6.8550     0.7760 ca         1 39G      -0.136000
     15 C30          2.6520     8.8340     4.5740 c3         1 39G       0.228600
     16 C4           3.5420    -0.1230     1.4450 cc         1 39G       0.025400
     17 C5           4.4470     0.9200     1.4760 cd         1 39G      -0.390900
     18 C6           5.7410     0.3490     1.4640 cd         1 39G       0.357200
     19 N7           5.6110    -0.9480     1.4300 nc         1 39G      -0.503800
     20 N8           4.2480    -1.2680     1.4220 na         1 39G       0.157300
     21 O16          2.9640     2.7200     1.5190 o          1 39G      -0.604100
     22 N17          5.1170     3.2690     1.5410 ns         1 39G      -0.475100
     23 C18          4.8150     4.6340     1.4700 ca         1 39G       0.036600
     24 C23          5.6910     5.5080     0.8410 ca         1 39G      -0.066300
     25 O26          1.5620     8.2950     2.0050 o          1 39G      -0.632300
     26 O27          0.9560     5.9800     2.7290 o          1 39G      -0.632300
     27 N28          2.1940     7.4810     4.2470 n3         1 39G      -0.826500
     28 C29          2.0350     6.4850     5.3090 c3         1 39G       0.228600
     29 H1          -0.3610     0.8500     0.5660 hc         1 39G       0.036700
     30 H2          -0.3610    -0.9150     0.4540 hc         1 39G       0.036700
     31 H3          -0.3610     0.0650    -1.0190 hc         1 39G       0.036700
     32 H4           1.8910    -0.8850    -0.5110 hc         1 39G       0.049200
     33 H5           1.8910     0.8840    -0.5110 hc         1 39G       0.049200
     34 H6           1.6090    -0.8370     1.9790 hc         1 39G       0.077200
     35 H7           1.7530     0.9250     1.9280 hc         1 39G       0.077200
     36 H8           2.2420    -2.1540     2.9050 ha         1 39G       0.149000
     37 H9           1.2940    -4.4280     2.8420 ha         1 39G       0.139000
     38 H10          2.2220    -6.1110     1.3010 ha         1 39G       0.136000
     39 H11          4.1010    -5.5270    -0.1820 ha         1 39G       0.139000
     40 H12          5.0570    -3.2560    -0.1270 ha         1 39G       0.149000
     41 H13          2.9550     4.4370     2.5230 ha         1 39G       0.187000
     42 H14          3.9900     8.3890     1.2850 ha         1 39G       0.148000
     43 H15          6.0750     7.5380     0.2850 ha         1 39G       0.137000
     44 H16          7.5640     5.8210    -0.1210 hc         1 39G       0.046700
     45 H17          7.5240     4.4330     0.9750 hc         1 39G       0.046700
     46 H18          6.7300     4.3380    -0.6030 hc         1 39G       0.046700
     47 H19          3.3760     9.1590     3.8370 h1         1 39G       0.042200
     48 H20          1.8060     9.5120     4.5730 h1         1 39G       0.042200
     49 H21          3.1110     8.8330     5.5550 h1         1 39G       0.042200
     50 H22          6.6770     0.8950     1.4790 h4         1 39G       0.045100
     51 H23          6.0650     2.9730     1.6580 hn         1 39G       0.323500
     52 H24          1.1800     5.8570     5.0900 h1         1 39G       0.042200
     53 H25          1.8810     6.9880     6.2560 h1         1 39G       0.042200
     54 H26          2.9270     5.8730     5.3670 h1         1 39G       0.042200
     55 S25          1.8570     7.0770     2.6770 sy         1 39G       1.426200
     56 C24          6.9670     4.9880     0.2300 c3         1 39G      -0.052800
@<TRIPOS>BOND
     1    15    27 1   
     2    28    27 1   
     3    27    55 1   
     4    25    55 2   
     5    26    55 2   
     6    55    12 1   
     7     1     2 1   
     8     2     3 1   
     9    12    11 ar  
    10    12    13 ar  
    11    11    23 ar  
    12    13    14 ar  
    13    21    10 2   
    14     5     6 ar  
    15     5     4 ar  
    16     6     7 ar  
    17     3    16 1   
    18    10    17 1   
    19    10    22 1   
    20    23    22 1   
    21    23    24 ar  
    22    16    17 2   
    23    16    20 1   
    24    14    24 ar  
    25    17    18 1   
    26    20     4 1   
    27    20    19 1   
    28     7     8 ar  
    29     4     9 ar  
    30    24    56 1   
    31    18    19 2   
    32     8     9 ar  
    33     1    29 1   
    34     1    30 1   
    35     1    31 1   
    36     2    32 1   
    37     2    33 1   
    38     3    34 1   
    39     3    35 1   
    40     5    36 1   
    41     6    37 1   
    42     7    38 1   
    43     8    39 1   
    44     9    40 1   
    45    11    41 1   
    46    13    42 1   
    47    14    43 1   
    48    56    44 1   
    49    56    45 1   
    50    56    46 1   
    51    15    47 1   
    52    15    48 1   
    53    15    49 1   
    54    18    50 1   
    55    22    51 1   
    56    28    52 1   
    57    28    53 1   
    58    28    54 1   
@<TRIPOS>SUBSTRUCTURE
     1 39G         1 TEMP              0 ****  ****    0 ROOT
