@<TRIPOS>MOLECULE
39H
   50    54     1     0     0
SMALL
bcc


@<TRIPOS>ATOM
      1 O16         0.2330    0.0200    0.1130 o         1 39H     -0.609500
      2 C9          1.4630   -0.0850   -0.0370 c         1 39H      0.683100
      3 N10         2.2880   -0.3090    1.1030 n         1 39H     -0.207800
      4 C17         1.6190   -0.4450    2.3920 c3        1 39H      0.097300
      5 N11         3.6070   -0.4420    1.0480 nc        1 39H     -0.425300
      6 C8          2.1590    0.0120   -1.3340 ca        1 39H     -0.139600
      7 C15         1.4290    0.2340   -2.5090 ca        1 39H     -0.066000
      8 C14         2.0940    0.3190   -3.7260 ca        1 39H     -0.135000
      9 C13         3.4860    0.1810   -3.7760 ca        1 39H     -0.096000
     10 C12         4.2180   -0.0400   -2.6150 ca        1 39H     -0.128000
     11 C7          3.5620   -0.1260   -1.3780 ca        1 39H     -0.106900
     12 C6          4.2500   -0.3560   -0.1070 cd        1 39H      0.344900
     13 C5          5.7360   -0.5230   -0.1560 c3        1 39H     -0.178700
     14 C1          6.4080   -0.7840    1.1880 c         1 39H      0.677100
     15 O1          7.0210   -1.8510    1.3730 o         1 39H     -0.587100
     16 N1          6.3620    0.2500    2.1100 n         1 39H     -0.454100
     17 C23         6.8340    0.2110    3.4370 ca        1 39H      0.051600
     18 C18         7.8260   -0.7150    3.8540 ca        1 39H     -0.135000
     19 C22         6.3190    1.1610    4.3500 ca        1 39H     -0.145000
     20 C21         6.8060    1.1720    5.6490 ca        1 39H     -0.060800
     21 C26         6.5460    1.9590    6.8390 cc        1 39H     -0.138400
     22 C30         5.6340    3.0880    7.0730 c3        1 39H     -0.006200
     23 C29         5.4530    3.3200    8.5690 c3        1 39H     -0.079400
     24 C28         6.7610    3.2700    9.3380 c3        1 39H     -0.075400
     25 C27         7.4620    1.9220    9.2210 c3        1 39H     -0.018200
     26 C25         7.3680    1.4590    7.8290 cd        1 39H      0.038900
     27 O24         8.1590    0.3910    7.3800 os        1 39H     -0.191200
     28 C20         7.8040    0.2220    6.0340 ca        1 39H      0.036100
     29 C19         8.3180   -0.7210    5.1550 ca        1 39H     -0.098000
     30 H1          0.8660   -1.2730    2.3150 h1        1 39H      0.062367
     31 H2          1.0830    0.5160    2.6140 h1        1 39H      0.062367
     32 H3          2.3490   -0.6720    3.2110 h1        1 39H      0.062367
     33 H4          0.3330    0.3380   -2.4470 ha        1 39H      0.164000
     34 H5          1.5270    0.4930   -4.6530 ha        1 39H      0.144000
     35 H6          4.0050    0.2470   -4.7450 ha        1 39H      0.141000
     36 H7          5.3120   -0.1510   -2.6700 ha        1 39H      0.142000
     37 H8          6.1890    0.3940   -0.6220 hc        1 39H      0.089200
     38 H9          5.9690   -1.4060   -0.8140 hc        1 39H      0.089200
     39 H10         5.7340    0.9980    1.9100 hn        1 39H      0.318500
     40 H11         8.2180   -1.4600    3.1400 ha        1 39H      0.174000
     41 H12         5.5480    1.8860    4.0510 ha        1 39H      0.136000
     42 H13         6.0550    4.0140    6.5940 hc        1 39H      0.050200
     43 H14         4.6360    2.8900    6.5990 hc        1 39H      0.050200
     44 H15         4.9710    4.3190    8.7260 hc        1 39H      0.044700
     45 H16         4.7570    2.5400    8.9780 hc        1 39H      0.044700
     46 H17         6.5630    3.4820   10.4210 hc        1 39H      0.047200
     47 H18         7.4430    4.0730    8.9540 hc        1 39H      0.047200
     48 H19         8.5340    2.0120    9.5370 hc        1 39H      0.066200
     49 H20         6.9730    1.1680    9.8960 hc        1 39H      0.066200
     50 H21         9.0820   -1.4430    5.4710 ha        1 39H      0.153000
@<TRIPOS>BOND
     1    1    2 2   
     2    2    3 1   
     3    2    6 1   
     4    3    4 1   
     5    3    5 1   
     6    4   30 1   
     7    4   31 1   
     8    4   32 1   
     9    5   12 2   
    10    6    7 ar  
    11    6   11 ar  
    12    7    8 ar  
    13    7   33 1   
    14    8    9 ar  
    15    8   34 1   
    16    9   10 ar  
    17    9   35 1   
    18   10   11 ar  
    19   10   36 1   
    20   11   12 1   
    21   12   13 1   
    22   13   14 1   
    23   13   37 1   
    24   13   38 1   
    25   14   15 2   
    26   14   16 1   
    27   16   17 1   
    28   16   39 1   
    29   17   18 ar  
    30   17   19 ar  
    31   18   29 ar  
    32   18   40 1   
    33   19   20 ar  
    34   19   41 1   
    35   20   21 1   
    36   20   28 ar  
    37   21   22 1   
    38   21   26 2   
    39   22   23 1   
    40   22   42 1   
    41   22   43 1   
    42   23   24 1   
    43   23   44 1   
    44   23   45 1   
    45   24   25 1   
    46   24   46 1   
    47   24   47 1   
    48   25   26 1   
    49   25   48 1   
    50   25   49 1   
    51   26   27 1   
    52   27   28 1   
    53   28   29 ar  
    54   29   50 1   
@<TRIPOS>SUBSTRUCTURE
     1 39H         1 TEMP              0 ****  ****    0 ROOT
