@<TRIPOS>MOLECULE
39J
   13    12     1     0     0
SMALL
bcc


@<TRIPOS>ATOM
      1 C1         -0.0550   -0.0300    0.0050 c         1 39J      0.918600
      2 O1         -0.5970   -0.8310   -0.8050 o         1 39J     -0.824800
      3 C2          1.4980    0.0180   -0.0100 c3        1 39J     -0.039300
      4 O2         -0.6700    0.6850    0.8400 o         1 39J     -0.824800
      5 C3          2.0450    0.0440    1.3970 c3        1 39J     -0.079400
      6 C4          3.5390   -0.1380    1.4660 c3        1 39J     -0.091100
      7 CL2         2.0620    1.4390   -0.9350 cl        1 39J     -0.277400
      8 H2          1.8950   -0.8530   -0.5870 h1        1 39J      0.050700
      9 H31C        1.7440    1.0080    1.8880 hc        1 39J      0.056700
     10 H32C        1.5380   -0.7810    1.9670 hc        1 39J      0.056700
     11 H41C        3.8410   -1.1050    0.9940 hc        1 39J      0.018033
     12 H42C        4.0640    0.6900    0.9300 hc        1 39J      0.018033
     13 H43C        3.8820   -0.1430    2.5290 hc        1 39J      0.018033
@<TRIPOS>BOND
     1    1    2 1   
     2    1    3 1   
     3    1    4 1   
     4    3    5 1   
     5    3    7 1   
     6    3    8 1   
     7    5    6 1   
     8    5    9 1   
     9    5   10 1   
    10    6   11 1   
    11    6   12 1   
    12    6   13 1   
@<TRIPOS>SUBSTRUCTURE
     1 39J         1 TEMP              0 ****  ****    0 ROOT
