@<TRIPOS>MOLECULE
molecule
   13    12     1     0     0
SMALL
bcc


@<TRIPOS>ATOM
      1 C1           0.0000     0.0000     0.0000 c          1 39J       0.888600
      2 O1          -0.6720    -0.8220    -0.8210 o          1 39J      -0.830800
      3 C2           1.5070     0.0000     0.0000 c3         1 39J      -0.016300
      4 O2          -0.6040     0.7440     0.7360 o          1 39J      -0.830800
      5 C3           2.0160     0.0000     1.4430 c3         1 39J      -0.078400
      6 C4           3.5420    -0.1260     1.4440 c3         1 39J      -0.101100
      7 Cl2          2.1080     1.4710    -0.8510 cl         1 39J      -0.266400
      8 H2           1.8680    -0.8850    -0.5100 h1         1 39J       0.060700
      9 H31C         1.7300     0.9260     1.9270 hc         1 39J       0.055200
     10 H32C         1.5840    -0.8370     1.9780 hc         1 39J       0.055200
     11 H41C         3.8270    -1.0710     0.9960 hc         1 39J       0.022033
     12 H42C         3.9720     0.6880     0.8740 hc         1 39J       0.022033
     13 H43C         3.9070    -0.0850     2.4630 hc         1 39J       0.022033
@<TRIPOS>BOND
     1     1     2 1   
     2     1     3 1   
     3     1     4 1   
     4     3     5 1   
     5     3     7 1   
     6     5     6 1   
     7     3     8 1   
     8     5     9 1   
     9     5    10 1   
    10     6    11 1   
    11     6    12 1   
    12     6    13 1   
@<TRIPOS>SUBSTRUCTURE
     1 39J         1 TEMP              0 ****  ****    0 ROOT
