@<TRIPOS>MOLECULE
molecule
   58    60     1     0     0
SMALL
bcc


@<TRIPOS>ATOM
      1 C1           0.0000     0.0000     0.0000 c3         1 39K      -0.091100
      2 C2           1.5300     0.0000     0.0000 c3         1 39K      -0.101700
      3 C3           2.0400     0.0000     1.4430 c3         1 39K      -0.091100
      4 C4           2.0410    -1.2480    -0.7220 c3         1 39K       0.228800
      5 N5           1.6700    -1.1790    -2.1380 n3         1 39K      -0.811500
      6 C6           2.2320    -0.1300    -2.9920 c3         1 39K       0.320100
      7 C7           3.5750    -0.5720    -3.5130 cc         1 39K      -0.055400
      8 C8           3.7750    -1.2420    -4.6520 cc         1 39K      -0.126000
      9 C9           5.0920    -1.5420    -4.9310 cc         1 39K      -0.134000
     10 C10          5.9750    -1.1130    -4.0060 cd         1 39K       0.000900
     11 S11          5.1160    -0.2800    -2.7180 ss         1 39K      -0.142800
     12 C12          7.4390    -1.3090    -4.0700 ca         1 39K       0.055000
     13 C13          8.0100    -1.9790    -5.1520 ca         1 39K      -0.144500
     14 C14          9.3780    -2.1580    -5.2050 ca         1 39K      -0.024500
     15 C15         10.1820    -1.6730    -4.1880 ca         1 39K      -0.303500
     16 C16          9.6210    -1.0070    -3.1120 ca         1 39K      -0.024500
     17 C17          8.2560    -0.8170    -3.0510 ca         1 39K      -0.144500
     18 S18         11.9270    -1.9070    -4.2620 sy         1 39K       1.193300
     19 O19         12.3410    -1.8850    -2.9040 o          1 39K      -0.618800
     20 O20         12.0910    -3.0710    -5.0600 o          1 39K      -0.618800
     21 C21         12.5420    -0.4420    -5.1400 c3         1 39K      -0.226300
     22 S22          0.6160    -2.2870    -2.7730 s6         1 39K       1.329900
     23 O23          1.0380    -2.4400    -4.1220 o          1 39K      -0.623300
     24 O24          0.6630    -3.3770    -1.8630 o          1 39K      -0.623300
     25 C25         -1.0010    -1.4670    -2.7020 c3         1 39K      -0.176300
     26 C26         -2.0190    -2.2980    -3.4380 ca         1 39K      -0.090300
     27 C27         -2.2280    -2.0960    -4.7900 ca         1 39K      -0.109500
     28 C28         -3.1590    -2.8620    -5.4680 ca         1 39K      -0.123500
     29 C29         -3.8790    -3.8300    -4.7930 ca         1 39K      -0.118000
     30 C30         -3.6680    -4.0330    -3.4430 ca         1 39K      -0.123500
     31 C31         -2.7390    -3.2660    -2.7650 ca         1 39K      -0.109500
     32 H1          -0.3610    -1.0180     0.0810 hc         1 39K       0.037200
     33 H2          -0.3610     0.5790     0.8410 hc         1 39K       0.037200
     34 H3          -0.3610     0.4390    -0.9220 hc         1 39K       0.037200
     35 H4           1.8900     0.8850    -0.5100 hc         1 39K       0.051700
     36 H5           3.1230    -0.0340     1.4430 hc         1 39K       0.037200
     37 H6           1.6510    -0.8670     1.9630 hc         1 39K       0.037200
     38 H7           1.7070     0.9010     1.9440 hc         1 39K       0.037200
     39 H8           1.5980    -2.1300    -0.2760 h1         1 39K       0.071200
     40 H9           3.1190    -1.3010    -0.6330 h1         1 39K       0.071200
     41 H10          2.3510     0.7800    -2.4150 h1         1 39K       0.060200
     42 H11          1.5640     0.0550    -3.8240 h1         1 39K       0.060200
     43 H12          2.9620    -1.5270    -5.3090 ha         1 39K       0.177000
     44 H13          5.3930    -2.0830    -5.8200 ha         1 39K       0.153000
     45 H14          7.3820    -2.3590    -5.9490 ha         1 39K       0.141000
     46 H15          9.8230    -2.6780    -6.0440 ha         1 39K       0.152000
     47 H16         10.2560    -0.6290    -2.3200 ha         1 39K       0.152000
     48 H17          7.8190    -0.2960    -2.2080 ha         1 39K       0.141000
     49 H18         12.0710    -0.3810    -6.1130 h1         1 39K       0.097033
     50 H19         13.6150    -0.5190    -5.2610 h1         1 39K       0.097033
     51 H20         12.3060     0.4470    -4.5680 h1         1 39K       0.097033
     52 H21         -1.3050    -1.3570    -1.6680 h1         1 39K       0.103200
     53 H22         -0.9300    -0.4890    -3.1630 h1         1 39K       0.103200
     54 H23         -1.6640    -1.3370    -5.3180 ha         1 39K       0.136500
     55 H24         -3.3240    -2.7030    -6.5260 ha         1 39K       0.135000
     56 H25         -4.6080    -4.4310    -5.3240 ha         1 39K       0.133000
     57 H26         -4.2330    -4.7920    -2.9140 ha         1 39K       0.135000
     58 H27         -2.5740    -3.4260    -1.7060 ha         1 39K       0.136500
@<TRIPOS>BOND
     1    28    29 ar  
     2    28    27 ar  
     3    29    30 ar  
     4    27    26 ar  
     5    30    31 ar  
     6    23    22 2   
     7    26    31 ar  
     8    26    25 1   
     9     8     9 1   
    10     8     7 2   
    11    25    22 1   
    12     9    10 2   
    13    22     5 1   
    14    22    24 2   
    15     6     7 1   
    16     6     5 1   
    17     7    11 1   
    18     5     4 1   
    19    13    14 ar  
    20    13    12 ar  
    21    10    12 1   
    22    10    11 1   
    23    14    15 ar  
    24    12    17 ar  
    25     4     2 1   
    26    21    18 1   
    27    15    16 ar  
    28    15    18 1   
    29    17    16 ar  
    30     2     1 1   
    31     2     3 1   
    32    20    18 2   
    33    18    19 2   
    34     1    32 1   
    35     1    33 1   
    36     1    34 1   
    37     2    35 1   
    38     3    36 1   
    39     3    37 1   
    40     3    38 1   
    41     4    39 1   
    42     4    40 1   
    43     6    41 1   
    44     6    42 1   
    45     8    43 1   
    46     9    44 1   
    47    13    45 1   
    48    14    46 1   
    49    16    47 1   
    50    17    48 1   
    51    21    49 1   
    52    21    50 1   
    53    21    51 1   
    54    25    52 1   
    55    25    53 1   
    56    27    54 1   
    57    28    55 1   
    58    29    56 1   
    59    30    57 1   
    60    31    58 1   
@<TRIPOS>SUBSTRUCTURE
     1 39K         1 TEMP              0 ****  ****    0 ROOT
