@<TRIPOS>MOLECULE
39L
   27    28     1     0     0
SMALL
bcc


@<TRIPOS>ATOM
      1 O4          0.1630    0.3760    0.4620 o         1 39L     -1.236667
      2 P2          1.3330   -0.3490   -0.1370 p3        1 39L      2.580000
      3 O6          2.0940   -1.2060    0.8270 o         1 39L     -1.236667
      4 O5          1.0030   -1.0230   -1.4360 o         1 39L     -1.236667
      5 C9          2.6780    1.2980   -0.6650 c2        1 39L     -1.166000
      6 F           2.4500    1.8600    0.5850 f         1 39L     -0.194000
      7 P1          4.2830    1.3900   -1.0670 p5        1 39L      2.069000
      8 O3          4.7450    0.5220   -2.1940 o         1 39L     -0.918000
      9 O1          4.4340    2.9520   -1.7610 os        1 39L     -0.727000
     10 O2          5.2490    1.5180    0.0670 o         1 39L     -0.918000
     11 C8          1.6960    1.7560   -1.7030 c3        1 39L     -0.076000
     12 C2          2.1300    2.9250   -2.5060 c2        1 39L     -0.257000
     13 C1          3.6370    3.0820   -2.8880 c3        1 39L      0.176000
     14 N1          3.7120    4.3880   -3.5980 n2        1 39L     -0.396000
     15 C7          2.4740    4.8840   -3.6540 c2        1 39L      0.129000
     16 N2          1.4760    3.9960   -2.9620 na        1 39L      0.099000
     17 C3          0.1530    4.3350   -2.9600 c2        1 39L     -0.390000
     18 C4         -0.2910    5.5210   -3.6060 c2        1 39L     -0.202000
     19 C5          0.5950    6.3530   -4.2420 c2        1 39L     -0.194000
     20 C6          1.9790    6.0550   -4.2710 c2        1 39L     -0.446000
     21 H5          1.5040    0.8990   -2.4190 hc        1 39L      0.108000
     22 H6          0.7110    1.9700   -1.1960 hc        1 39L      0.108000
     23 H7          3.9110    2.2540   -3.6130 h2        1 39L      0.073000
     24 H8         -0.5280    3.6630   -2.4290 h4        1 39L      0.124000
     25 H9         -1.3660    5.7370   -3.5750 ha        1 39L      0.040000
     26 H10         0.2450    7.2680   -4.7420 ha        1 39L      0.020000
     27 H11         2.6830    6.7320   -4.7570 ha        1 39L      0.067000
@<TRIPOS>BOND
     1    1    2 1   
     2    2    3 1   
     3    2    4 1   
     4    5    6 1   
     5    5    7 1   
     6    5   11 1   
     7    7    8 1   
     8    7    9 1   
     9    7   10 1   
    10    9   13 1   
    11   11   12 1   
    12   11   21 1   
    13   11   22 1   
    14   12   13 1   
    15   12   16 1   
    16   13   14 1   
    17   13   23 1   
    18   14   15 1   
    19   15   16 1   
    20   15   20 1   
    21   16   17 1   
    22   17   18 1   
    23   17   24 1   
    24   18   19 1   
    25   18   25 1   
    26   19   20 1   
    27   19   26 1   
    28   20   27 1   
@<TRIPOS>SUBSTRUCTURE
     1 39L         1 TEMP              0 ****  ****    0 ROOT
