@<TRIPOS>MOLECULE
molecule
   27    28     1     0     0
SMALL
bcc


@<TRIPOS>ATOM
      1 O4           0.0000     0.0000     0.0000 o          1 39L      -0.915667
      2 P2           1.6100     0.0000     0.0000 p5         1 39L       1.100200
      3 O6           2.1030     0.0000     1.3960 o          1 39L      -0.915667
      4 O5           2.1470    -1.3140    -0.7580 o          1 39L      -0.915667
      5 C9           2.2190     1.4880    -0.8590 c3         1 39L      -0.124100
      6 F            1.7510     2.6310    -0.2000 f          1 39L      -0.285300
      7 P1           4.0420     1.4890    -0.8580 p5         1 39L       1.100200
      8 O3           4.5780     0.2450    -1.7280 o          1 39L      -0.915667
      9 O1           4.5780     2.8650    -1.5000 o          1 39L      -0.915667
     10 O2           4.5340     1.3680     0.5320 o          1 39L      -0.915667
     11 C8           1.7080     1.4880    -2.3010 c3         1 39L       0.007800
     12 C2           2.2110     2.7190    -3.0120 cc         1 39L      -0.096300
     13 C1           3.4080     2.8590    -3.6240 cd         1 39L       0.133600
     14 N1           3.4830     4.0900    -4.1350 nc         1 39L      -0.377600
     15 C7           2.3620     4.7430    -3.8650 cd         1 39L      -0.098300
     16 N2           1.5390     3.9010    -3.1630 na         1 39L       0.072700
     17 C3           0.3040     4.3200    -2.7590 cd         1 39L      -0.024300
     18 C4          -0.1280     5.5650    -3.0460 cc         1 39L      -0.263000
     19 C5           0.6910     6.4500    -3.7670 cc         1 39L      -0.255000
     20 C6           1.9270     6.0500    -4.1690 cd         1 39L      -0.107000
     21 H5           0.6250     1.4880    -2.3010 hc         1 39L       0.051200
     22 H6           2.0690     0.6030    -2.8120 hc         1 39L       0.051200
     23 H7           4.1740     2.0970    -3.6970 h4         1 39L       0.226000
     24 H8          -0.5650     3.8240    -2.3440 h4         1 39L       0.155000
     25 H9          -1.0930     5.9590    -2.7510 ha         1 39L       0.082000
     26 H10          0.3390     7.4480    -4.0000 ha         1 39L       0.058000
     27 H11          2.5540     6.7450    -4.7130 ha         1 39L       0.087000
@<TRIPOS>BOND
     1     3     2 1
     2    18    17 2
     3    18    19 1
     4    17    16 1
     5     4     2 1
     6    19    20 2
     7     2     1 1
     8     2     5 1
     9    11    12 1
    10    11     5 1
    11    16    12 1
    12    16    15 1
    13    12    13 2
    14    20    15 1
    15     5     6 1
    16     5     7 1
    17    15    14 2
    18    10     7 1
    19    13    14 1
    20     7     9 1
    21     7     8 1
    22    11    21 1
    23    11    22 1
    24    13    23 1
    25    17    24 1
    26    18    25 1
    27    19    26 1
    28    20    27 1
@<TRIPOS>SUBSTRUCTURE
     1 39L         1 TEMP              0 ****  ****    0 ROOT
