@<TRIPOS>MOLECULE
molecule
   27    28     1     0     0
SMALL
bcc


@<TRIPOS>ATOM
      1 CAA          0.0000     0.0000     0.0000 c3         1 39O      -0.031800
      2 CAH          1.5080     0.0000     0.0000 ca         1 39O      -0.092300
      3 CAF          2.1960     0.0000     1.1960 ca         1 39O      -0.121000
      4 CAK          3.5820    -0.0010     1.1980 ca         1 39O      -0.006400
      5 NAM          4.5370    -0.0000     2.2150 n          1 39O      -0.361000
      6 CAB          4.2590    -0.0010     3.6530 c3         1 39O       0.118300
      7 CAJ          5.7590    -0.0010     1.6490 c          1 39O       0.801500
      8 OAE          6.8130    -0.0010     2.2570 o          1 39O      -0.667500
      9 NAN          5.6370    -0.0010     0.3070 n          1 39O      -0.361000
     10 CAC          6.7430    -0.0020    -0.6530 c3         1 39O       0.118300
     11 CAL          4.2810    -0.0010    -0.0120 ca         1 39O      -0.003400
     12 CAG          3.5870    -0.0010    -1.2120 ca         1 39O      -0.139000
     13 CAI          2.2000    -0.0060    -1.2050 ca         1 39O       0.163600
     14 NAD          1.4970    -0.0070    -2.4150 nv         1 39O      -0.985200
     15 H1          -0.3610     0.0110     1.0210 hc         1 39O       0.041700
     16 H2          -0.3610    -0.8900    -0.5010 hc         1 39O       0.041700
     17 H3          -0.3610     0.8790    -0.5200 hc         1 39O       0.041700
     18 H4           1.6530    -0.0350     2.1330 ha         1 39O       0.135000
     19 H5           3.6700     0.8720     3.9070 h1         1 39O       0.051700
     20 H6           5.1930     0.0220     4.2010 h1         1 39O       0.051700
     21 H7           3.7080    -0.8970     3.9130 h1         1 39O       0.051700
     22 H8           6.6810     0.8820    -1.2770 h1         1 39O       0.051700
     23 H9           6.6820    -0.8870    -1.2740 h1         1 39O       0.051700
     24 H10          7.6850    -0.0000    -0.1190 h1         1 39O       0.051700
     25 H11          4.1260    -0.0060    -2.1510 ha         1 39O       0.140000
     26 H12          1.2660     0.8590    -2.8600 hn         1 39O       0.427800
     27 H13          1.2640    -0.8740    -2.8570 hn         1 39O       0.427800
@<TRIPOS>BOND
     1    14    13 1   
     2    13    12 ar  
     3    13     2 ar  
     4    12    11 ar  
     5    10     9 1   
     6     1     2 1   
     7     2     3 ar  
     8    11     9 1   
     9    11     4 ar  
    10     9     7 1   
    11     3     4 ar  
    12     4     5 1   
    13     7     5 1   
    14     7     8 2   
    15     5     6 1   
    16     1    15 1   
    17     1    16 1   
    18     1    17 1   
    19     3    18 1   
    20     6    19 1   
    21     6    20 1   
    22     6    21 1   
    23    10    22 1   
    24    10    23 1   
    25    10    24 1   
    26    12    25 1   
    27    14    26 1   
    28    14    27 1   
@<TRIPOS>SUBSTRUCTURE
     1 39O         1 TEMP              0 ****  ****    0 ROOT
