@<TRIPOS>MOLECULE
39P
   56    59     1     0     0
SMALL
bcc


@<TRIPOS>ATOM
      1 N1         -0.0740   -0.7030   -0.0920 na        1 39P      0.279200
      2 N2          1.2210   -1.0450   -0.2300 nc        1 39P     -0.581800
      3 C3          1.9300   -1.0640    0.9110 cd        1 39P      0.693900
      4 N4          1.5180   -0.7900    2.1960 nd        1 39P     -0.769000
      5 C5          0.2130   -0.4470    2.3530 cc        1 39P      0.773200
      6 C6         -0.6760   -0.3840    1.1750 cc        1 39P     -0.277600
      7 C7         -2.0290   -0.0620    0.9530 cd        1 39P      0.036800
      8 C8         -2.2530   -0.1900   -0.4650 cd        1 39P     -0.307200
      9 C9         -1.0200   -0.5870   -1.0750 cc        1 39P     -0.084100
     10 C10        -3.4960    0.0460   -1.1260 c         1 39P      0.612300
     11 O11        -4.5960    0.3370   -0.6740 o         1 39P     -0.450100
     12 N12        -3.4350   -0.0860   -2.6520 n4        1 39P     -0.680800
     13 C13        -4.7290    0.2250   -3.3250 c3        1 39P      0.102800
     14 C14        -4.6490    0.0880   -4.8400 c3        1 39P     -0.104400
     15 C15        -5.9930    0.4180   -5.4410 c3        1 39P     -0.100100
     16 C16        -3.0190    0.3360    1.9560 c3        1 39P     -0.080900
     17 N17        -0.3170   -0.1270    3.5750 nh        1 39P     -0.707300
     18 C18         0.4100   -0.1470    4.7930 ca        1 39P      0.096600
     19 C19        -0.1300   -0.8200    5.9200 ca        1 39P     -0.063300
     20 C20         0.5700   -0.7780    7.1280 ca        1 39P     -0.119000
     21 C21         1.7860   -0.1080    7.2390 ca        1 39P     -0.086000
     22 C22         2.3170    0.5450    6.1250 ca        1 39P     -0.136600
     23 C23         1.6320    0.5410    4.9070 ca        1 39P     -0.051000
     24 C24         3.6000    1.3110    6.1880 c         1 39P      0.687700
     25 O25         3.7220    2.4090    5.6170 o         1 39P     -0.572100
     26 N26         4.6280    0.7110    6.9040 n         1 39P     -0.529400
     27 C27         5.8950    1.2650    7.0770 cc        1 39P      0.421200
     28 N28         6.9400    0.6340    7.6980 nd        1 39P     -0.404300
     29 O29         7.9730    1.4480    7.6970 os        1 39P     -0.109100
     30 C30         7.6490    2.6650    7.0640 cd        1 39P      0.262600
     31 C31         6.3400    2.6060    6.6490 cc        1 39P     -0.350600
     32 C32        -1.4170   -1.5480    5.8410 c3        1 39P     -0.067800
     33 H3          3.0040   -1.3450    0.8060 h5        1 39P      0.091100
     34 H9         -0.7760   -0.7910   -2.1210 h4        1 39P      0.189000
     35 HN12       -2.7090    0.5490   -3.0010 hn        1 39P      0.451300
     36 H13        -5.5110   -0.4750   -2.9080 hx        1 39P      0.114200
     37 H13A       -5.0210    1.2770   -3.0400 hx        1 39P      0.114200
     38 H14        -4.3590   -0.9590   -5.1230 hc        1 39P      0.061700
     39 H14A       -3.8720    0.7840   -5.2550 hc        1 39P      0.061700
     40 H15        -6.2950    1.4650   -5.1960 hc        1 39P      0.061367
     41 H15A       -5.9390    0.3190   -6.5540 hc        1 39P      0.061367
     42 H15B       -6.7820   -0.2780   -5.0640 hc        1 39P      0.061367
     43 H16        -2.6720    1.2450    2.5140 hc        1 39P      0.076367
     44 H16A       -4.0040    0.5830    1.4830 hc        1 39P      0.076367
     45 H16B       -3.1940   -0.4950    2.6880 hc        1 39P      0.076367
     46 HN17       -1.3090   -0.0690    3.6560 hn        1 39P      0.458800
     47 H20         0.1520   -1.2900    8.0110 ha        1 39P      0.154000
     48 H21         2.3070   -0.0870    8.2100 ha        1 39P      0.155000
     49 H23         2.0630    1.0920    4.0540 ha        1 39P      0.172000
     50 HN26        4.4780   -0.2020    7.2770 hn        1 39P      0.338500
     51 H30         8.4560    3.3900    7.0260 h4        1 39P      0.070100
     52 H31         5.7310    3.3390    6.1270 ha        1 39P      0.204000
     53 H32        -2.2590   -0.8410    5.6290 hc        1 39P      0.053700
     54 H32A       -1.6430   -2.0690    6.8060 hc        1 39P      0.053700
     55 H32B       -1.3870   -2.3220    5.0330 hc        1 39P      0.053700
     56 H122       -3.1540   -1.0440   -2.8810 hn        1 39P      0.451300
@<TRIPOS>BOND
     1    1    2 1   
     2    1    6 1   
     3    1    9 1   
     4    2    3 2   
     5    3    4 1   
     6    3   33 1   
     7    4    5 2   
     8    5    6 1   
     9    5   17 1   
    10    6    7 2   
    11    7    8 1   
    12    7   16 1   
    13    8    9 2   
    14    8   10 1   
    15    9   34 1   
    16   10   11 2   
    17   10   12 1   
    18   12   13 1   
    19   12   35 1   
    20   12   56 1   
    21   13   14 1   
    22   13   36 1   
    23   13   37 1   
    24   14   15 1   
    25   14   38 1   
    26   14   39 1   
    27   15   40 1   
    28   15   41 1   
    29   15   42 1   
    30   16   43 1   
    31   16   44 1   
    32   16   45 1   
    33   17   18 1   
    34   17   46 1   
    35   18   19 ar  
    36   18   23 ar  
    37   19   20 ar  
    38   19   32 1   
    39   20   21 ar  
    40   20   47 1   
    41   21   22 ar  
    42   21   48 1   
    43   22   23 ar  
    44   22   24 1   
    45   23   49 1   
    46   24   25 2   
    47   24   26 1   
    48   26   27 1   
    49   26   50 1   
    50   27   28 2   
    51   27   31 1   
    52   28   29 1   
    53   29   30 1   
    54   30   31 2   
    55   30   51 1   
    56   31   52 1   
    57   32   53 1   
    58   32   54 1   
    59   32   55 1   
@<TRIPOS>SUBSTRUCTURE
     1 39P         1 TEMP              0 ****  ****    0 ROOT
