@<TRIPOS>MOLECULE
molecule
   30    32     1     0     0
SMALL
bcc


@<TRIPOS>ATOM
      1 CAJ          0.0000     0.0000     0.0000 ca         1 39R      -0.102000
      2 CAN          1.3870     0.0000     0.0000 ca         1 39R       0.165600
      3 NAA          2.0850     0.0000    -1.2100 nv         1 39R      -0.989200
      4 CAF          2.0810     0.0000     1.2050 ca         1 39R      -0.134000
      5 CAE          1.3950    -0.0010     2.4040 ca         1 39R      -0.123000
      6 CAI          0.0140    -0.0010     2.4150 ca         1 39R      -0.133000
      7 CAP         -0.6930     0.0060     1.2100 ca         1 39R      -0.114500
      8 CAQ         -2.1720     0.0060     1.2190 cc         1 39R       0.423000
      9 NAL         -2.9780     0.0060     2.3260 na         1 39R      -0.430700
     10 NAK         -2.9590     0.0130     0.1650 nd         1 39R      -0.345000
     11 NAM         -4.1890     0.0110     0.5360 nd         1 39R      -0.345000
     12 CAR         -4.2610     0.0080     1.8500 cc         1 39R       0.421000
     13 CAO         -5.4980     0.0080     2.6590 ca         1 39R      -0.117500
     14 CAG         -6.7460     0.0080     2.0340 ca         1 39R      -0.104500
     15 CAC         -7.8960     0.0090     2.7960 ca         1 39R      -0.127500
     16 CAB         -7.8150     0.0080     4.1770 ca         1 39R      -0.118000
     17 CAD         -6.5810     0.0070     4.8040 ca         1 39R      -0.127500
     18 CAH         -5.4230     0.0000     4.0530 ca         1 39R      -0.104500
     19 H1          -0.5430     0.0050    -0.9370 ha         1 39R       0.164000
     20 H2           2.3320     0.8670    -1.6450 hn         1 39R       0.430800
     21 H3           2.3290    -0.8670    -1.6460 hn         1 39R       0.430800
     22 H4           3.1640     0.0000     1.2030 ha         1 39R       0.138000
     23 H5           1.9420    -0.0040     3.3390 ha         1 39R       0.133000
     24 H6          -0.5200     0.0010     3.3570 ha         1 39R       0.118000
     25 H7          -2.6880     0.0040     3.2840 hn         1 39R       0.310700
     26 H8          -6.8110     0.0090     0.9530 ha         1 39R       0.139000
     27 H9          -8.8660     0.0100     2.3120 ha         1 39R       0.135000
     28 H10         -8.7210     0.0110     4.7710 ha         1 39R       0.133000
     29 H11         -6.5240     0.0040     5.8860 ha         1 39R       0.135000
     30 H12         -4.4580    -0.0010     4.5450 ha         1 39R       0.139000
@<TRIPOS>BOND
     1     5     4 ar  
     2     5     6 ar  
     3     4     2 ar  
     4     6     7 ar  
     5     2     3 1   
     6     2     1 ar  
     7     7     1 ar  
     8     7     8 1   
     9    18    17 ar  
    10    18    13 ar  
    11    17    16 ar  
    12     9     8 1   
    13     9    12 1   
    14     8    10 2   
    15    12    13 1   
    16    12    11 2   
    17    13    14 ar  
    18    16    15 ar  
    19    10    11 1   
    20    14    15 ar  
    21     1    19 1   
    22     3    20 1   
    23     3    21 1   
    24     4    22 1   
    25     5    23 1   
    26     6    24 1   
    27     9    25 1   
    28    14    26 1   
    29    15    27 1   
    30    16    28 1   
    31    17    29 1   
    32    18    30 1   
@<TRIPOS>SUBSTRUCTURE
     1 39R         1 TEMP              0 ****  ****    0 ROOT
