@<TRIPOS>MOLECULE
molecule
   27    28     1     0     0
SMALL
bcc


@<TRIPOS>ATOM
      1 C13          0.0000     0.0000     0.0000 c3         1 39U      -0.082600
      2 C01          3.9980     0.0000     0.0000 cc         1 39U      -0.283000
      3 C02          2.9890     0.0000     0.9280 cc         1 39U       0.464600
      4 N03          3.0000     1.0820     1.6790 nc         1 39U      -0.782000
      5 S04          4.9250     1.4780     0.1580 ss         1 39U      -0.155300
      6 C05          3.9160     1.9770     1.4470 cd         1 39U       0.724300
      7 C06          4.2070    -1.1110    -0.9410 c          1 39U       0.759100
      8 N07          3.0880    -1.5930    -1.5330 ns         1 39U      -0.579900
      9 C08          1.9800    -1.1260     1.0290 c3         1 39U      -0.094700
     10 C09          1.0470    -1.1000    -0.1840 c3         1 39U      -0.088000
     11 O10          5.3120    -1.5680    -1.1730 o          1 39U      -0.631500
     12 N11          4.0560     3.1580     2.1420 nv         1 39U      -0.984500
     13 C12          1.8550    -0.8250    -1.4530 c3         1 39U       0.110000
     14 C14          0.3450    -2.4540    -0.3150 c3         1 39U      -0.082600
     15 H1          -0.4860    -0.1210     0.9600 hc         1 39U       0.039200
     16 H2           0.4830     0.9690    -0.0400 hc         1 39U       0.039200
     17 H3          -0.7380    -0.0680    -0.7900 hc         1 39U       0.039200
     18 H4           3.1090    -2.4670    -2.0200 hn         1 39U       0.327500
     19 H5           2.5030    -2.0740     1.0580 hc         1 39U       0.067200
     20 H6           1.3960    -1.0030     1.9330 hc         1 39U       0.067200
     21 H7           4.7850     3.7990     1.8990 hn         1 39U       0.449800
     22 H8           3.4380     3.3680     2.9020 hn         1 39U       0.449800
     23 H9           1.2420    -1.0670    -2.3120 h1         1 39U       0.053700
     24 H10          2.1030     0.2290    -1.4830 h1         1 39U       0.053700
     25 H11          1.0870    -3.2400    -0.3870 hc         1 39U       0.039200
     26 H12         -0.2770    -2.6230     0.5560 hc         1 39U       0.039200
     27 H13         -0.2710    -2.4570    -1.2050 hc         1 39U       0.039200
@<TRIPOS>BOND
     1    12     6 1   
     2     4     6 2   
     3     4     3 1   
     4     6     5 1   
     5     9     3 1   
     6     9    10 1   
     7     3     2 2   
     8     5     2 1   
     9     1    10 1   
    10     2     7 1   
    11    10    14 1   
    12    10    13 1   
    13     7    11 2   
    14     7     8 1   
    15    13     8 1   
    16     1    15 1   
    17     1    16 1   
    18     1    17 1   
    19     8    18 1   
    20     9    19 1   
    21     9    20 1   
    22    12    21 1   
    23    12    22 1   
    24    13    23 1   
    25    13    24 1   
    26    14    25 1   
    27    14    26 1   
    28    14    27 1   
@<TRIPOS>SUBSTRUCTURE
     1 39U         1 TEMP              0 ****  ****    0 ROOT
