@<TRIPOS>MOLECULE
molecule
   43    46     1     0     0
SMALL
bcc


@<TRIPOS>ATOM
      1 O3           0.0000     0.0000     0.0000 o          1 39X      -0.831800
      2 C21          1.3420     0.0000     0.0000 c          1 39X       0.882600
      3 O2           1.9470     0.0000    -1.0470 o          1 39X      -0.831800
      4 C20          2.0960     0.0000     1.3050 c3         1 39X       0.016700
      5 C12          1.7260    -1.2490     2.1080 c3         1 39X      -0.088700
      6 C13          2.3830    -1.1880     3.4620 cc         1 39X       0.451800
      7 N3           3.6580    -1.0280     3.6650 nd         1 39X      -0.611100
      8 C15          3.9090    -1.0180     5.0010 ca         1 39X       0.090400
      9 C19          5.0740    -0.8810     5.7590 ca         1 39X      -0.052000
     10 C18          5.0070    -0.9150     7.1240 ca         1 39X      -0.189000
     11 C17          3.7870    -1.0830     7.7670 ca         1 39X       0.122900
     12 F1           3.7400    -1.1120     9.1180 f          1 39X      -0.153900
     13 C16          2.6240    -1.2190     7.0370 ca         1 39X      -0.168000
     14 C14          2.6760    -1.1890     5.6510 ca         1 39X      -0.085200
     15 N2           1.7280    -1.2880     4.6520 na         1 39X      -0.263300
     16 N1           3.5360     0.0010     1.0370 ns         1 39X      -0.527900
     17 C1           4.1790     1.1630     0.8150 c          1 39X       0.677700
     18 O1           3.5650     2.2120     0.8350 o          1 39X      -0.623100
     19 C2           5.6330     1.1630     0.5440 ca         1 39X      -0.112600
     20 C7           6.3380    -0.0540     0.5220 ca         1 39X      -0.089000
     21 C6           7.6730    -0.0790     0.2770 ca         1 39X      -0.143000
     22 C5           8.3690     1.1200     0.0400 ca         1 39X      -0.028000
     23 C11          9.7500     1.1180    -0.2160 ca         1 39X      -0.122000
     24 C10         10.3970     2.2950    -0.4410 ca         1 39X      -0.134000
     25 C9           9.7090     3.5070    -0.4220 ca         1 39X      -0.146000
     26 C8           8.3710     3.5490    -0.1760 ca         1 39X      -0.103000
     27 C4           7.6690     2.3530     0.0610 ca         1 39X      -0.047000
     28 C3           6.2880     2.3600     0.3100 ca         1 39X      -0.067000
     29 H15          1.8340     0.8850     1.8730 h1         1 39X       0.081700
     30 H9           2.0660    -2.1310     1.5800 hc         1 39X       0.076200
     31 H10          0.6500    -1.2940     2.2300 hc         1 39X       0.076200
     32 H14          6.0300    -0.7500     5.2670 ha         1 39X       0.145000
     33 H13          5.9120    -0.8090     7.7090 ha         1 39X       0.137000
     34 H12          1.6750    -1.3500     7.5430 ha         1 39X       0.134000
     35 H11          0.7670    -1.5390     4.7750 hn         1 39X       0.303700
     36 H1           4.0330    -0.8660     0.9740 hn         1 39X       0.307500
     37 H4           5.8090    -0.9820     0.7000 ha         1 39X       0.137000
     38 H3           8.2020    -1.0240     0.2630 ha         1 39X       0.124000
     39 H8          10.2980     0.1840    -0.2340 ha         1 39X       0.124000
     40 H7          11.4620     2.2890    -0.6390 ha         1 39X       0.116000
     41 H6          10.2470     4.4300    -0.6040 ha         1 39X       0.118000
     42 H5           7.8490     4.4980    -0.1640 ha         1 39X       0.132000
     43 H2           5.7190     3.2730     0.1810 ha         1 39X       0.161000
@<TRIPOS>BOND
     1    25    26 ar
     2    25    24 ar
     3    26    27 ar
     4    24    23 ar
     5     3     2 1
     6    27    28 ar
     7    27    22 ar
     8    23    22 ar
     9    28    19 ar
    10     2     1 1
    11     2     4 1
    12    22    21 ar
    13     7     6 2
    14     7     8 1
    15     5     4 1
    16     5     6 1
    17    16     4 1
    18    16    17 1
    19    19    17 1
    20    19    20 ar
    21     6    15 1
    22     9     8 ar
    23     9    10 ar
    24     8    14 ar
    25    21    20 ar
    26    17    18 2
    27    15    14 1
    28    10    11 ar
    29    14    13 ar
    30    11    13 ar
    31    11    12 1
    32     4    29 1
    33     5    30 1
    34     5    31 1
    35     9    32 1
    36    10    33 1
    37    13    34 1
    38    15    35 1
    39    16    36 1
    40    20    37 1
    41    21    38 1
    42    23    39 1
    43    24    40 1
    44    25    41 1
    45    26    42 1
    46    28    43 1
@<TRIPOS>SUBSTRUCTURE
     1 39X         1 TEMP              0 ****  ****    0 ROOT
