@<TRIPOS>MOLECULE
39X
   43    46     1     0     0
SMALL
bcc


@<TRIPOS>ATOM
      1 O3           0.0000     0.0000     0.0000 o          1 39X      -0.883300
      2 C21          1.3420     0.0000     0.0000 c          1 39X       0.972600
      3 O2           1.9470     0.0000    -1.0470 o          1 39X      -0.883300
      4 C20          2.0960     0.0000     1.3050 c3         1 39X      -0.094300
      5 C12          1.7260    -1.2490     2.1080 c3         1 39X      -0.019700
      6 C13          2.3830    -1.1880     3.4620 cc         1 39X       0.237800
      7 N3           3.6580    -1.0280     3.6650 nd         1 39X      -0.536100
      8 C15          3.9090    -1.0180     5.0010 ca         1 39X       0.064400
      9 C19          5.0740    -0.8810     5.7590 ca         1 39X      -0.016000
     10 C18          5.0070    -0.9150     7.1240 ca         1 39X      -0.160000
     11 C17          3.7870    -1.0830     7.7670 ca         1 39X       0.090900
     12 F1           3.7400    -1.1120     9.1180 f          1 39X      -0.139900
     13 C16          2.6240    -1.2190     7.0370 ca         1 39X      -0.118000
     14 C14          2.6760    -1.1890     5.6510 ca         1 39X      -0.266200
     15 N2           1.7280    -1.2880     4.6520 na         1 39X       0.268700
     16 N1           3.5360     0.0010     1.0370 ns         1 39X      -0.112900
     17 C1           4.1790     1.1630     0.8150 c          1 39X       0.585700
     18 O1           3.5650     2.2120     0.8350 o          1 39X      -0.669100
     19 C2           5.6330     1.1630     0.5440 ca         1 39X      -0.117600
     20 C7           6.3380    -0.0540     0.5220 ca         1 39X      -0.069000
     21 C6           7.6730    -0.0790     0.2770 ca         1 39X      -0.117000
     22 C5           8.3690     1.1200     0.0400 ca         1 39X      -0.029000
     23 C11          9.7500     1.1180    -0.2160 ca         1 39X      -0.095000
     24 C10         10.3970     2.2950    -0.4410 ca         1 39X      -0.112000
     25 C9           9.7090     3.5070    -0.4220 ca         1 39X      -0.124000
     26 C8           8.3710     3.5490    -0.1760 ca         1 39X      -0.074000
     27 C4           7.6690     2.3530     0.0610 ca         1 39X      -0.049000
     28 C3           6.2880     2.3600     0.3100 ca         1 39X      -0.037000
     29 H15          1.8340     0.8850     1.8730 h1         1 39X       0.058700
     30 H9           2.0660    -2.1310     1.5800 hc         1 39X       0.038700
     31 H10          0.6500    -1.2940     2.2300 hc         1 39X       0.038700
     32 H14          6.0300    -0.7500     5.2670 ha         1 39X       0.111000
     33 H13          5.9120    -0.8090     7.7090 ha         1 39X       0.112000
     34 H12          1.6750    -1.3500     7.5430 ha         1 39X       0.110000
     35 H11          0.7670    -1.5390     4.7750 hn         1 39X       0.130700
     36 H1           4.0330    -0.8660     0.9740 hn         1 39X       0.167500
     37 H4           5.8090    -0.9820     0.7000 ha         1 39X       0.113000
     38 H3           8.2020    -1.0240     0.2630 ha         1 39X       0.099000
     39 H8          10.2980     0.1840    -0.2340 ha         1 39X       0.098000
     40 H7          11.4620     2.2890    -0.6390 ha         1 39X       0.091000
     41 H6          10.2470     4.4300    -0.6040 ha         1 39X       0.093000
     42 H5           7.8490     4.4980    -0.1640 ha         1 39X       0.105000
     43 H2           5.7190     3.2730     0.1810 ha         1 39X       0.133000
@<TRIPOS>BOND
     1     1     2 1   
     2     2     3 1   
     3     2     4 1   
     4     4     5 1   
     5     4    16 1   
     6     4    29 1   
     7     5     6 1   
     8     5    30 1   
     9     5    31 1   
    10     6     7 2   
    11     6    15 1   
    12     7     8 1   
    13     8     9 ar  
    14     8    14 ar  
    15     9    10 ar  
    16     9    32 1   
    17    10    11 ar  
    18    10    33 1   
    19    11    12 1   
    20    11    13 ar  
    21    13    14 ar  
    22    13    34 1   
    23    14    15 1   
    24    15    35 1   
    25    16    17 1   
    26    16    36 1   
    27    17    18 2   
    28    17    19 1   
    29    19    20 ar  
    30    19    28 ar  
    31    20    21 ar  
    32    20    37 1   
    33    21    22 ar  
    34    21    38 1   
    35    22    23 ar  
    36    22    27 ar  
    37    23    24 ar  
    38    23    39 1   
    39    24    25 ar  
    40    24    40 1   
    41    25    26 ar  
    42    25    41 1   
    43    26    27 ar  
    44    26    42 1   
    45    27    28 ar  
    46    28    43 1   
@<TRIPOS>SUBSTRUCTURE
     1 39X         1 TEMP              0 ****  ****    0 ROOT
