@<TRIPOS>MOLECULE
molecule
   23    22     1     0     0
SMALL
bcc


@<TRIPOS>ATOM
      1 O            0.0000     0.0000     0.0000 o          1 39Y      -0.848800
      2 C8           1.2160     0.0000     0.0000 c          1 39Y       0.871800
      3 C9           1.9510     0.0000     1.2730 ce         1 39Y      -0.179200
      4 C10          1.2850    -0.0000     2.4250 c2         1 39Y      -0.221200
      5 C11          2.0380    -0.0010     3.7300 c3         1 39Y      -0.039200
      6 C12          1.5770     1.1810     4.5860 c3         1 39Y      -0.068700
      7 C13          0.1070     0.9910     4.9670 c3         1 39Y      -0.087100
      8 C14          2.4280     1.2540     5.8560 c3         1 39Y      -0.082400
      9 C15          2.0510     2.5060     6.6510 c3         1 39Y      -0.091100
     10 H14          3.0340    -0.0000     1.2730 ha         1 39Y       0.098000
     11 H15          0.2020    -0.0000     2.4250 ha         1 39Y       0.142000
     12 H16          1.8450    -0.9260     4.2580 hc         1 39Y       0.029200
     13 H17          3.1000     0.0880     3.5340 hc         1 39Y       0.029200
     14 H18          1.6890     2.1000     4.0230 hc         1 39Y       0.056700
     15 H21         -0.1740     1.7340     5.7030 hc         1 39Y       0.030700
     16 H19         -0.0330     0.0010     5.3820 hc         1 39Y       0.030700
     17 H20         -0.5120     1.1040     4.0850 hc         1 39Y       0.030700
     18 H23          2.2500     0.3740     6.4610 hc         1 39Y       0.034200
     19 H22          3.4770     1.3000     5.5850 hc         1 39Y       0.034200
     20 H26          2.8850     2.8000     7.2780 hc         1 39Y       0.026367
     21 H24          1.8130     3.3110     5.9660 hc         1 39Y       0.026367
     22 H25          1.1900     2.2930     7.2720 hc         1 39Y       0.026367
     23 OXT          1.8900     0.0000    -1.1670 o          1 39Y      -0.848800
@<TRIPOS>BOND
     1     1     2 1   
     2     2     3 1   
     3     3     4 2   
     4     4     5 1   
     5     5     6 1   
     6     6     7 1   
     7     6     8 1   
     8     8     9 1   
     9     3    10 1   
    10     4    11 1   
    11     5    12 1   
    12     5    13 1   
    13     6    14 1   
    14     7    15 1   
    15     7    16 1   
    16     7    17 1   
    17     8    18 1   
    18     8    19 1   
    19     9    20 1   
    20     9    21 1   
    21     9    22 1   
    22     2    23 1   
@<TRIPOS>SUBSTRUCTURE
     1 39Y         1 TEMP              0 ****  ****    0 ROOT
