@<TRIPOS>MOLECULE
39Y
   23    21     1     0     0
SMALL
bcc


@<TRIPOS>ATOM
      1 O           0.1490    0.2750   -1.2530 o         1 39Y     -0.208500
      2 C8          0.9480    1.1510   -1.3580 c1        1 39Y      0.418000
      3 C9          1.8330   -0.5980    1.6740 c2        1 39Y     -0.302000
      4 C10         1.2640   -0.2670    2.8330 c2        1 39Y     -0.110000
      5 C11         2.0000   -0.0380    4.0990 c3        1 39Y     -0.134000
      6 C12         1.5770    1.2330    4.8190 c3        1 39Y     -0.172000
      7 C13         0.1660    1.1410    5.3420 c3        1 39Y     -0.180000
      8 C14         2.5570    1.5470    6.0010 c3        1 39Y      0.086000
      9 C15         2.3050    2.7650    6.6910 c2        1 39Y     -0.880000
     10 H14         2.9160   -0.7300    1.5630 ha        1 39Y      0.091500
     11 H15         1.2510   -0.7550    0.7570 ha        1 39Y      0.091500
     12 H16         0.1700   -0.1360    2.9050 ha        1 39Y      0.109000
     13 H17         3.1050    0.0070    3.9020 hc        1 39Y      0.071000
     14 H18         1.8210   -0.9180    4.7760 hc        1 39Y      0.071000
     15 H21         1.6430    2.0950    4.1030 hc        1 39Y      0.066000
     16 H19        -0.0150    2.0140    6.0190 hc        1 39Y      0.049333
     17 H20        -0.5870    1.1570    4.5160 hc        1 39Y      0.049333
     18 H23         0.0180    0.2000    5.9270 hc        1 39Y      0.049333
     19 H22         2.4900    0.6460    6.6790 hc        1 39Y     -0.022500
     20 H26         3.5830    1.5270    5.5230 hc        1 39Y     -0.022500
     21 H24         1.6740    2.7910    7.5720 ha        1 39Y      0.044500
     22 H25         2.6810    3.7080    6.3130 ha        1 39Y      0.044500
     23 OXT         1.7400    2.0260   -1.4990 o         1 39Y     -0.208500
@<TRIPOS>BOND
     1    1    2 1   
     2    2   23 1   
     3    3    4 1   
     4    3   10 1   
     5    3   11 1   
     6    4    5 1   
     7    4   12 1   
     8    5    6 1   
     9    5   13 1   
    10    5   14 1   
    11    6    7 1   
    12    6    8 1   
    13    6   15 1   
    14    7   16 1   
    15    7   17 1   
    16    7   18 1   
    17    8    9 1   
    18    8   19 1   
    19    8   20 1   
    20    9   21 1   
    21    9   22 1   
@<TRIPOS>SUBSTRUCTURE
     1 39Y         1 TEMP              0 ****  ****    0 ROOT
