@<TRIPOS>MOLECULE
39Z
   30    32     1     0     0
SMALL
bcc


@<TRIPOS>ATOM
      1 C3         -0.1650   -0.2410    0.0580 c         1 39Z      0.663700
      2 C5          1.3660   -0.1710   -0.0360 cc        1 39Z     -0.161400
      3 C6          0.5940   -0.0600    2.1460 ca        1 39Z      0.048000
      4 C7          1.8170   -0.0670    1.2440 ca        1 39Z     -0.075000
      5 C8          3.1160    0.0210    1.8300 ca        1 39Z     -0.224000
      6 C9          3.2220    0.1130    3.1850 ca        1 39Z      0.140100
      7 C10         2.0620    0.1290    4.0690 ca        1 39Z     -0.089000
      8 C11         0.8080    0.0460    3.5800 ca        1 39Z     -0.101000
      9 C19         2.1350   -0.2140   -1.2990 c3        1 39Z      0.072800
     10 C20         1.6490   -1.3340   -2.2030 c3        1 39Z     -0.091100
     11 C21         2.0980    1.0970   -2.0060 cc        1 39Z     -0.131600
     12 O4         -0.9630   -0.3620   -0.8630 o         1 39Z     -0.436100
     13 N1         -0.5340   -0.1540    1.4820 nc        1 39Z     -0.302400
     14 O12         4.4140    0.2010    3.8580 oh        1 39Z     -0.488100
     15 C26         1.9130    1.3580   -3.3750 cd        1 39Z     -0.172000
     16 C25         2.0060    2.7760   -3.5570 cd        1 39Z     -0.197000
     17 C24         2.2420    3.3420   -2.2950 cc        1 39Z     -0.158300
     18 N22         2.3080    2.3190   -1.3570 na        1 39Z     -0.176100
     19 H8          3.9960    0.0010    1.1720 ha        1 39Z      0.147000
     20 H10         2.2650    0.2100    5.1490 ha        1 39Z      0.163000
     21 H11        -0.0780    0.0550    4.2350 ha        1 39Z      0.166000
     22 H19         3.2180   -0.4260   -1.0330 hc        1 39Z      0.057700
     23 H201        0.5950   -1.1480   -2.5260 hc        1 39Z      0.051700
     24 H202        2.2990   -1.3970   -3.1090 hc        1 39Z      0.051700
     25 H203        1.6930   -2.3080   -1.6600 hc        1 39Z      0.051700
     26 HO12        5.1350    0.1630    3.2100 ho        1 39Z      0.428000
     27 H26         1.7260    0.6210   -4.1490 ha        1 39Z      0.153000
     28 H25         1.9100    3.3120   -4.4950 ha        1 39Z      0.152000
     29 H24         2.3680    4.3850   -2.0060 h4        1 39Z      0.164000
     30 HN22        2.4100    2.4300   -0.3840 hn        1 39Z      0.291700
@<TRIPOS>BOND
     1    1    2 1   
     2    1   12 2   
     3    1   13 1   
     4    2    4 2   
     5    2    9 1   
     6    3    4 ar  
     7    3    8 ar  
     8    3   13 2   
     9    4    5 ar  
    10    5    6 ar  
    11    5   19 1   
    12    6    7 ar  
    13    6   14 1   
    14    7    8 ar  
    15    7   20 1   
    16    8   21 1   
    17    9   10 1   
    18    9   11 1   
    19    9   22 1   
    20   10   23 1   
    21   10   24 1   
    22   10   25 1   
    23   11   15 2   
    24   11   18 1   
    25   14   26 1   
    26   15   16 1   
    27   15   27 1   
    28   16   17 2   
    29   16   28 1   
    30   17   18 1   
    31   17   29 1   
    32   18   30 1   
@<TRIPOS>SUBSTRUCTURE
     1 39Z         1 TEMP              0 ****  ****    0 ROOT
