@<TRIPOS>MOLECULE
3A0
   22    22     1     0     0
SMALL
bcc


@<TRIPOS>ATOM
      1 N3           0.0000     0.0000     0.0000 n7         1 3A0      -0.551200
      2 O4           1.2450    -2.1860    -0.8500 o          1 3A0      -0.891800
      3 C21          1.4690     0.0000     0.0000 c3         1 3A0       0.005500
      4 C22          1.9710    -1.2300    -0.7110 c          1 3A0       0.978600
      5 C33          1.9800     0.0000     1.4430 c3         1 3A0      -0.002400
      6 C34          1.4500     1.2410     2.1670 c3         1 3A0      -0.054700
      7 C35          1.9880     2.5000     1.4830 c3         1 3A0      -0.011100
      8 C36         -0.0800     1.2410     2.1110 c3         1 3A0      -0.018400
      9 C37         -0.5310     1.2060     0.6490 c3         1 3A0       0.131800
     10 H3           1.8270     0.8870    -0.5080 h1         1 3A0       0.005700
     11 H41          1.6280    -0.8910     1.9500 hc         1 3A0       0.025200
     12 H42          3.0630     0.0180     1.4410 hc         1 3A0       0.025200
     13 H7           1.7730     1.2190     3.2010 hc         1 3A0       0.003700
     14 H44          1.5610     2.5820     0.4910 hc         1 3A0       0.001700
     15 H43          3.0670     2.4370     1.4080 hc         1 3A0       0.001700
     16 H45          1.7170     3.3720     2.0660 hc         1 3A0       0.001700
     17 H46         -0.4600     0.3670     2.6270 hc         1 3A0       0.004200
     18 H47         -0.4580     2.1390     2.5840 hc         1 3A0       0.004200
     19 H48         -0.1580     2.0840     0.1360 h1         1 3A0      -0.010800
     20 H49         -1.6130     1.1900     0.6070 h1         1 3A0      -0.010800
     21 H2          -0.3340    -0.0460    -0.9420 hn         1 3A0       0.252800
     22 OXT          3.2240    -1.2640    -1.1890 o          1 3A0      -0.891800
@<TRIPOS>BOND
     1     1     3 1   
     2     1     9 1   
     3     1    21 1   
     4     2     4 1   
     5     3     4 1   
     6     3     5 1   
     7     3    10 1   
     8     4    22 1   
     9     5     6 1   
    10     5    11 1   
    11     5    12 1   
    12     6     7 1   
    13     6     8 1   
    14     6    13 1   
    15     7    14 1   
    16     7    15 1   
    17     7    16 1   
    18     8     9 1   
    19     8    17 1   
    20     8    18 1   
    21     9    19 1   
    22     9    20 1   
@<TRIPOS>SUBSTRUCTURE
     1 3A0         1 TEMP              0 ****  ****    0 ROOT
