@<TRIPOS>MOLECULE
molecule
   36    38     1     0     0
SMALL
bcc


@<TRIPOS>ATOM
      1 O24          0.0000     0.0000     0.0000 o          1 3A3      -0.835050
      2 C11          1.3430     0.0000     0.0000 c          1 3A3       0.893600
      3 O14          1.9460     0.0000     1.0460 o          1 3A3      -0.835050
      4 C19          2.0960     0.0010    -1.3040 c3         1 3A3      -0.003600
      5 O17          3.5010     0.0010    -1.0430 os         1 3A3      -0.259400
      6 C15          4.1250     0.0010    -2.2500 ca         1 3A3       0.128600
      7 C10          5.5100     0.0010    -2.3120 ca         1 3A3      -0.123000
      8 C22          3.3740     0.0020    -3.4180 ca         1 3A3      -0.219000
      9 C8           3.9970     0.0020    -4.6500 ca         1 3A3      -0.086000
     10 C4           5.3880     0.0020    -4.7290 cp         1 3A3      -0.070500
     11 C3           6.1480     0.0010    -3.5480 ca         1 3A3      -0.135400
     12 C1           7.5800     0.0010    -3.9310 cc         1 3A3       0.508500
     13 N6           8.5990     0.0000    -3.1200 n2         1 3A3      -0.440200
     14 O23          9.9160     0.0000    -3.6400 oh         1 3A3      -0.384500
     15 C2           7.6320     0.0070    -5.4130 ca         1 3A3      -0.135400
     16 C9           8.6920     0.0020    -6.3110 ca         1 3A3      -0.123000
     17 C5           6.3110     0.0020    -5.8880 cp         1 3A3      -0.070500
     18 C7           6.0750     0.0010    -7.2610 ca         1 3A3      -0.086000
     19 C21          7.1340    -0.0000    -8.1450 ca         1 3A3      -0.219000
     20 C16          8.4410     0.0010    -7.6750 ca         1 3A3       0.128600
     21 O18          9.4780     0.0010    -8.5550 os         1 3A3      -0.259400
     22 C20          8.9070     0.0000    -9.8650 c3         1 3A3      -0.003600
     23 C12         10.0090     0.0010   -10.8930 c          1 3A3       0.893600
     24 O25          9.7070    -0.0000   -12.2010 o          1 3A3      -0.835050
     25 O13         11.1640     0.0010   -10.5400 o          1 3A3      -0.835050
     26 H191         1.8340     0.8860    -1.8720 h1         1 3A3       0.032700
     27 H192         1.8340    -0.8830    -1.8730 h1         1 3A3       0.032700
     28 H10          6.0930    -0.0670    -1.4020 ha         1 3A3       0.153000
     29 H22          2.2920     0.0030    -3.3620 ha         1 3A3       0.156000
     30 H8           3.4040     0.0030    -5.5570 ha         1 3A3       0.120500
     31 H23         10.5350     0.0000    -2.9290 ho         1 3A3       0.415000
     32 H9           9.7120     0.0030    -5.9470 ha         1 3A3       0.153000
     33 H7           5.0580     0.0000    -7.6350 ha         1 3A3       0.120500
     34 H21          6.9450    -0.0010    -9.2120 ha         1 3A3       0.156000
     35 H201         8.2930     0.8840    -9.9930 h1         1 3A3       0.032700
     36 H202         8.2950    -0.8850    -9.9920 h1         1 3A3       0.032700
@<TRIPOS>BOND
     1     1     2 1
     2     2     3 1
     3     2     4 1
     4     4     5 1
     5     4    26 1
     6     4    27 1
     7     5     6 1
     8     6     7 ar
     9     6     8 ar
    10     7    11 ar
    11     7    28 1
    12     8     9 ar
    13     8    29 1
    14     9    10 ar
    15     9    30 1
    16    10    11 ar
    17    10    17 1
    18    11    12 1
    19    12    13 2
    20    12    15 1
    21    13    14 1
    22    14    31 1
    23    15    16 ar
    24    15    17 ar
    25    16    20 ar
    26    16    32 1
    27    17    18 ar
    28    18    19 ar
    29    18    33 1
    30    19    20 ar
    31    19    34 1
    32    20    21 1
    33    21    22 1
    34    22    23 1
    35    22    35 1
    36    22    36 1
    37    23    24 1
    38    23    25 1
@<TRIPOS>SUBSTRUCTURE
     1 3A3         1 TEMP              0 ****  ****    0 ROOT
