@<TRIPOS>MOLECULE
molecule
   69    73     1     0     0
SMALL
bcc


@<TRIPOS>ATOM
      1 O1           0.0000     0.0000     0.0000 o          1 3A4      -0.495100
      2 C24          1.2070     0.0000     0.0000 c          1 3A4       0.568900
      3 C23          1.9620     0.0000     1.3050 c3         1 3A4       0.053500
      4 C25          2.8410    -1.2490     1.3850 c3         1 3A4       0.002900
      5 C26          3.6400    -1.2190     2.6630 cc         1 3A4      -0.248900
      6 N3           3.3170    -1.8360     3.8420 na         1 3A4      -0.296900
      7 C28          4.2990    -1.5530     4.7230 cd         1 3A4       0.396400
      8 N2           5.1880    -0.8040     4.1320 nc         1 3A4      -0.695000
      9 C27          4.8110    -0.5870     2.8630 cc         1 3A4       0.324200
     10 N1           1.0070    -0.0010     2.4210 n7         1 3A4      -0.820200
     11 C22          0.5040     1.3540     2.6840 c3         1 3A4       0.157800
     12 C21         -0.5680     1.2970     3.7750 c3         1 3A4       0.126700
     13 C20         -1.7360     0.4260     3.3020 c3         1 3A4      -0.083400
     14 C19         -2.8630     0.4820     4.3360 c3         1 3A4      -0.069700
     15 C18         -4.0150    -0.4130     3.8750 c3         1 3A4      -0.073400
     16 C17         -5.1490    -0.3590     4.9000 c3         1 3A4      -0.081400
     17 C16         -5.6470     1.0830     5.0310 c3         1 3A4      -0.077400
     18 C15         -4.4970     1.9770     5.4970 c3         1 3A4      -0.076400
     19 C14         -3.3600     1.9240     4.4740 c3         1 3A4      -0.082700
     20 C13         -2.2080     2.8130     4.9560 c3         1 3A4       0.083000
     21 N           -1.0700     2.6510     4.0440 n          1 3A4      -0.478800
     22 C           -0.4950     3.7250     3.4650 c          1 3A4       0.680700
     23 O            0.3750     3.5720     2.6300 o          1 3A4      -0.619100
     24 C1          -0.9230     5.0870     3.8450 ca         1 3A4      -0.147600
     25 C12         -1.4140     5.3320     5.1300 ca         1 3A4      -0.092000
     26 C11         -1.8070     6.6030     5.4860 ca         1 3A4      -0.134000
     27 C4          -1.7160     7.6450     4.5640 cp         1 3A4      -0.010000
     28 C3          -1.2260     7.4010     3.2800 ca         1 3A4      -0.134000
     29 C2          -0.8310     6.1320     2.9230 ca         1 3A4      -0.092000
     30 C5          -2.1390     9.0130     4.9470 cp         1 3A4      -0.043000
     31 C10         -2.0500    10.0570     4.0280 ca         1 3A4      -0.115000
     32 C9          -2.4460    11.3290     4.3910 ca         1 3A4      -0.127000
     33 C8          -2.9300    11.5670     5.6640 ca         1 3A4      -0.122000
     34 C7          -3.0220    10.5360     6.5810 ca         1 3A4      -0.127000
     35 C6          -2.6350     9.2590     6.2270 ca         1 3A4      -0.115000
     36 H1           1.7490     0.0230    -0.9380 h4         1 3A4      -0.006800
     37 H2           2.5840     0.8850     1.3620 h1         1 3A4       0.060700
     38 H3           2.2160    -2.1330     1.3710 hc         1 3A4       0.063200
     39 H4           3.5160    -1.2700     0.5380 hc         1 3A4       0.063200
     40 H5           2.5040    -2.3930     4.0170 hn         1 3A4       0.301700
     41 H6           4.3420    -1.8920     5.7510 h5         1 3A4       0.066100
     42 H8           5.3510    -0.0000     2.1300 h4         1 3A4       0.043100
     43 H9           1.4540    -0.3560     3.2430 hn         1 3A4       0.345800
     44 H11          0.0750     1.7620     1.7770 h1         1 3A4       0.072700
     45 H12          1.3210     1.9850     3.0130 h1         1 3A4       0.072700
     46 H13         -0.1490     0.8800     4.6820 h1         1 3A4       0.041700
     47 H14         -1.4000    -0.5980     3.1910 hc         1 3A4       0.066200
     48 H15         -2.1010     0.7970     2.3520 hc         1 3A4       0.066200
     49 H16         -2.4940     0.1330     5.2930 hc         1 3A4       0.046700
     50 H17         -4.3800    -0.0630     2.9160 hc         1 3A4       0.045200
     51 H18         -3.6630    -1.4330     3.7820 hc         1 3A4       0.045200
     52 H19         -4.7820    -0.7020     5.8600 hc         1 3A4       0.040700
     53 H20         -5.9630    -0.9930     4.5700 hc         1 3A4       0.040700
     54 H21         -6.4500     1.1220     5.7560 hc         1 3A4       0.042200
     55 H22         -6.0050     1.4290     4.0680 hc         1 3A4       0.042200
     56 H23         -4.1340     1.6260     6.4560 hc         1 3A4       0.040200
     57 H24         -4.8490     2.9970     5.5900 hc         1 3A4       0.040200
     58 H25         -3.7170     2.2790     3.5150 hc         1 3A4       0.065700
     59 H26         -1.9160     2.5160     5.9560 h1         1 3A4       0.061200
     60 H27         -2.5270     3.8490     4.9580 h1         1 3A4       0.061200
     61 H28         -1.4850     4.5230     5.8470 ha         1 3A4       0.150000
     62 H29         -2.1880     6.7930     6.4820 ha         1 3A4       0.137500
     63 H30         -1.1550     8.2110     2.5650 ha         1 3A4       0.137500
     64 H31         -0.4520     5.9430     1.9260 ha         1 3A4       0.150000
     65 H32         -1.6710     9.8710     3.0300 ha         1 3A4       0.133000
     66 H33         -2.3770    12.1410     3.6780 ha         1 3A4       0.131500
     67 H34         -3.2370    12.5670     5.9450 ha         1 3A4       0.130000
     68 H35         -3.4040    10.7290     7.5760 ha         1 3A4       0.131500
     69 H36         -2.7070     8.4520     6.9460 ha         1 3A4       0.133000
@<TRIPOS>BOND
     1    34    35 ar
     2    34    33 ar
     3    35    30 ar
     4    33    32 ar
     5    26    25 ar
     6    26    27 ar
     7    30    27 1
     8    30    31 ar
     9    32    31 ar
    10     8     9 1
    11     8     7 2
    12    25    24 ar
    13    27    28 ar
    14     9     5 2
    15     7     6 1
    16     2     1 2
    17     2     3 1
    18    24    29 ar
    19    24    22 1
    20    28    29 ar
    21     5     6 1
    22     5     4 1
    23     3     4 1
    24     3    10 1
    25    23    22 2
    26    22    21 1
    27    11    10 1
    28    11    12 1
    29    21    12 1
    30    21    20 1
    31    12    13 1
    32    20    19 1
    33    13    14 1
    34    19    14 1
    35    19    18 1
    36    14    15 1
    37    18    17 1
    38    15    16 1
    39    17    16 1
    40     2    36 1
    41     3    37 1
    42     4    38 1
    43     4    39 1
    44     6    40 1
    45     7    41 1
    46     9    42 1
    47    10    43 1
    48    11    44 1
    49    11    45 1
    50    12    46 1
    51    13    47 1
    52    13    48 1
    53    14    49 1
    54    15    50 1
    55    15    51 1
    56    16    52 1
    57    16    53 1
    58    17    54 1
    59    17    55 1
    60    18    56 1
    61    18    57 1
    62    19    58 1
    63    20    59 1
    64    20    60 1
    65    25    61 1
    66    26    62 1
    67    28    63 1
    68    29    64 1
    69    31    65 1
    70    32    66 1
    71    33    67 1
    72    34    68 1
    73    35    69 1
@<TRIPOS>SUBSTRUCTURE
     1 3A4         1 TEMP              0 ****  ****    0 ROOT
