@<TRIPOS>MOLECULE
molecule
   51    54     1     0     0
SMALL
bcc


@<TRIPOS>ATOM
      1 C1           0.0000     0.0000     0.0000 c3         1 3A6      -0.142400
      2 C2           1.5070     0.0000     0.0000 ca         1 3A6       0.431600
      3 C3           2.1880     0.0000     1.2000 ca         1 3A6      -0.245300
      4 C4           3.5860     0.0000     1.1870 cp         1 3A6       0.002000
      5 C5           4.2340     0.0010    -0.0520 ca         1 3A6      -0.253300
      6 C6           3.4760     0.0020    -1.2040 ca         1 3A6       0.428200
      7 N7           2.1580    -0.0040    -1.1480 nb         1 3A6      -0.694000
      8 C8           4.3600    -0.0000     2.4510 cp         1 3A6      -0.029000
      9 C9           5.7540     0.0000     2.4160 ca         1 3A6      -0.122000
     10 C10          6.4740     0.0010     3.5900 ca         1 3A6      -0.092000
     11 C11          5.8070    -0.0000     4.8160 cp         1 3A6      -0.141500
     12 C12          4.4110    -0.0000     4.8520 ca         1 3A6      -0.092000
     13 C13          3.6940     0.0050     3.6770 ca         1 3A6      -0.122000
     14 C14          6.5800    -0.0010     6.0800 cp         1 3A6       0.477800
     15 C15          6.1790    -0.8610     7.1260 ca         1 3A6       0.114300
     16 C16          6.9050    -0.8650     8.3210 ca         1 3A6      -0.143600
     17 C17          8.0540     0.0390     8.4090 ca         1 3A6      -0.100300
     18 C18          8.8400     0.1040     9.5620 ca         1 3A6      -0.169000
     19 C19          9.9050     0.9600     9.6060 ca         1 3A6       0.151900
     20 C20         10.2140     1.7690     8.5120 ca         1 3A6      -0.160000
     21 C21          9.4670     1.7290     7.3760 ca         1 3A6      -0.126300
     22 C22          8.3640     0.8580     7.2960 ca         1 3A6       0.399600
     23 N23          7.6200     0.7960     6.1880 nb         1 3A6      -0.658000
     24 F24         10.6660     1.0250    10.7210 f          1 3A6      -0.134900
     25 C25          6.5300    -1.7420     9.4430 c          1 3A6       0.709700
     26 O26          7.0010    -2.8610     9.5240 o          1 3A6      -0.550100
     27 N27          5.6670    -1.3040    10.3800 ns         1 3A6      -0.651300
     28 S28          5.2450    -2.2900    11.6430 s6         1 3A6       1.312600
     29 O29          4.3190    -1.5180    12.3960 o          1 3A6      -0.608300
     30 O30          4.8520    -3.5050    11.0220 o          1 3A6      -0.608300
     31 C31          6.7870    -2.5200    12.5710 c3         1 3A6      -0.236300
     32 N32          5.0810    -1.6890     6.9720 nv         1 3A6      -0.979200
     33 H11C        -0.3610    -0.9240     0.4360 hc         1 3A6       0.052700
     34 H12C        -0.3610     0.0840    -1.0180 hc         1 3A6       0.052700
     35 H13C        -0.3610     0.8390     0.5820 hc         1 3A6       0.052700
     36 H3           1.6470    -0.0010     2.1390 ha         1 3A6       0.140000
     37 H5           5.3160     0.0040    -0.1070 ha         1 3A6       0.140000
     38 H6           3.9690     0.0010    -2.1680 h4         1 3A6       0.024100
     39 H9           6.2720     0.0010     1.4640 ha         1 3A6       0.137500
     40 H13          2.6110     0.0050     3.7050 ha         1 3A6       0.137500
     41 H10          7.5570     0.0010     3.5620 ha         1 3A6       0.140500
     42 H12          3.8940     0.0010     5.8040 ha         1 3A6       0.140500
     43 H321         4.1920    -1.4150     7.3420 hn         1 3A6       0.443300
     44 H322         5.1850    -2.5800     6.5290 hn         1 3A6       0.443300
     45 H18          8.6080    -0.5200    10.4160 ha         1 3A6       0.146000
     46 H20         11.0620     2.4410     8.5690 ha         1 3A6       0.153000
     47 H21          9.7200     2.3630     6.5360 ha         1 3A6       0.160000
     48 H27          5.2610    -0.3930    10.3000 hn         1 3A6       0.352500
     49 H311         6.5580    -2.8620    13.5730 h1         1 3A6       0.105367
     50 H312         7.3210    -1.5790    12.6240 h1         1 3A6       0.105367
     51 H313         7.4040    -3.2570    12.0700 h1         1 3A6       0.105367
@<TRIPOS>BOND
     1     1     2 1   
     2     2     3 ar  
     3     2     7 ar  
     4     3     4 ar  
     5     4     5 ar  
     6     4     8 1   
     7     5     6 ar  
     8     6     7 ar  
     9     8     9 ar  
    10     8    13 ar  
    11     9    10 ar  
    12    10    11 ar  
    13    11    12 ar  
    14    11    14 1   
    15    12    13 ar  
    16    14    15 ar  
    17    14    23 ar  
    18    15    16 ar  
    19    15    32 1   
    20    16    17 ar  
    21    16    25 1   
    22    17    18 ar  
    23    17    22 ar  
    24    18    19 ar  
    25    19    20 ar  
    26    19    24 1   
    27    20    21 ar  
    28    21    22 ar  
    29    22    23 ar  
    30    25    26 2   
    31    25    27 1   
    32    27    28 1   
    33    28    29 2   
    34    28    30 2   
    35    28    31 1   
    36     1    33 1   
    37     1    34 1   
    38     1    35 1   
    39     3    36 1   
    40     5    37 1   
    41     6    38 1   
    42     9    39 1   
    43    13    40 1   
    44    10    41 1   
    45    12    42 1   
    46    32    43 1   
    47    32    44 1   
    48    18    45 1   
    49    20    46 1   
    50    21    47 1   
    51    27    48 1   
    52    31    49 1   
    53    31    50 1   
    54    31    51 1   
@<TRIPOS>SUBSTRUCTURE
     1 3A6         1 TEMP              0 ****  ****    0 ROOT
