@<TRIPOS>MOLECULE
3A7
   59    62     1     0     0
SMALL
bcc


@<TRIPOS>ATOM
      1 C1           0.0000     0.0000     0.0000 ca         1 3A7      -0.132600
      2 C2           1.3960     0.0000     0.0000 ca         1 3A7      -0.077000
      3 C3           2.0820     0.0000     1.1960 ca         1 3A7      -0.088000
      4 C4           1.3900    -0.0000     2.3950 ca         1 3A7       0.045100
      5 C5           0.0050    -0.0010     2.4010 ca         1 3A7      -0.088000
      6 C6          -0.6930     0.0050     1.2120 ca         1 3A7      -0.077000
      7 C7           0.6900     1.8270    -2.0590 c3         1 3A7       0.005000
      8 C18          0.2150    -1.8370    -6.5960 c          1 3A7       0.630900
      9 C17          1.0710    -1.2010    -5.5320 c3         1 3A7      -0.015500
     10 C19          2.1010    -2.2170    -5.0330 c3         1 3A7       0.106900
     11 C20          3.0360    -1.5470    -4.0580 cc         1 3A7      -0.421900
     12 N3           2.9220    -1.5360    -2.6940 na         1 3A7       0.270100
     13 C22          3.9650    -0.8270    -2.2120 cc         1 3A7       0.186400
     14 N2           4.6910    -0.4150    -3.2150 nd         1 3A7      -0.616000
     15 C21          4.1460    -0.8480    -4.3620 cd         1 3A7       0.316200
     16 N1           0.2230    -0.7720    -4.4110 n7         1 3A7      -0.591200
     17 C16         -0.3450     0.5590    -4.6610 c3         1 3A7       0.113800
     18 C15         -1.2200     0.9710    -3.4750 c3         1 3A7       0.024700
     19 C14         -1.7030     2.4120    -3.6690 c3         1 3A7      -0.034400
     20 C13         -0.4990     3.3630    -3.6310 c3         1 3A7      -0.056700
     21 C12         -0.9830     4.7980    -3.8560 c3         1 3A7      -0.020400
     22 C11          0.2090     5.7540    -3.8140 c3         1 3A7      -0.024400
     23 C10          0.8910     5.6570    -2.4470 c3         1 3A7      -0.022400
     24 C9           1.3830     4.2180    -2.2240 c3         1 3A7      -0.020400
     25 C8           0.1900     3.2600    -2.2680 c3         1 3A7      -0.057700
     26 N           -0.4350     0.8990    -2.2350 n          1 3A7      -0.115800
     27 C           -0.7410    -0.0000    -1.2790 c          1 3A7       0.604700
     28 O           -1.6270    -0.8110    -1.4680 o          1 3A7      -0.648100
     29 Br           2.3380    -0.0000     4.0310 br         1 3A7      -0.119100
     30 H1           1.9390    -0.0020    -0.9370 ha         1 3A7       0.122000
     31 H2           3.1650     0.0000     1.1980 ha         1 3A7       0.120000
     32 H3          -0.5320     0.0010     3.3420 ha         1 3A7       0.120000
     33 H4          -1.7760     0.0050     1.2180 ha         1 3A7       0.122000
     34 H5           1.0880     1.7260    -1.0560 h1         1 3A7       0.044200
     35 H6           1.4610     1.6030    -2.7860 h1         1 3A7       0.044200
     36 H7           0.6690    -2.2110    -7.5050 h4         1 3A7      -0.034800
     37 H8           1.5840    -0.3410    -5.9470 h1         1 3A7       0.061700
     38 H9           1.5910    -3.0350    -4.5400 hc         1 3A7       0.021700
     39 H10          2.6680    -2.5990    -5.8730 hc         1 3A7       0.021700
     40 H11          2.2020    -1.9730    -2.1550 hn         1 3A7       0.130700
     41 H12          4.1650    -0.6300    -1.1660 h5         1 3A7       0.024100
     42 H14          4.5280    -0.6620    -5.3590 h4         1 3A7       0.002100
     43 H15         -0.5190    -1.4320    -4.2830 hn         1 3A7       0.287800
     44 H17          0.4580     1.2770    -4.7830 h1         1 3A7       0.024200
     45 H18         -0.9460     0.5330    -5.5620 h1         1 3A7       0.024200
     46 H19         -2.0750     0.3090    -3.4010 h1         1 3A7       0.073700
     47 H20         -2.2010     2.4990    -4.6270 hc         1 3A7       0.027200
     48 H21         -2.3920     2.6710    -2.8740 hc         1 3A7       0.027200
     49 H22          0.2020     3.0920    -4.4120 hc         1 3A7       0.038700
     50 H23         -1.4660     4.8670    -4.8230 hc         1 3A7       0.016700
     51 H24         -1.6870     5.0650    -3.0760 hc         1 3A7       0.016700
     52 H25         -0.1380     6.7680    -3.9720 hc         1 3A7       0.014700
     53 H26          0.9150     5.4840    -4.5890 hc         1 3A7       0.014700
     54 H27          0.1820     5.9190    -1.6710 hc         1 3A7       0.015200
     55 H28          1.7350     6.3350    -2.4170 hc         1 3A7       0.015200
     56 H29          1.8650     4.1490    -1.2570 hc         1 3A7       0.018200
     57 H30          2.0860     3.9530    -3.0050 hc         1 3A7       0.018200
     58 H31         -0.5120     3.5190    -1.4850 hc         1 3A7       0.038700
     59 O1          -0.9790    -1.9240    -6.4380 o          1 3A7      -0.548100
@<TRIPOS>BOND
     1     1     2 ar  
     2     1     6 ar  
     3     1    27 1   
     4     2     3 ar  
     5     2    30 1   
     6     3     4 ar  
     7     3    31 1   
     8     4     5 ar  
     9     4    29 1   
    10     5     6 ar  
    11     5    32 1   
    12     6    33 1   
    13     7    25 1   
    14     7    26 1   
    15     7    34 1   
    16     7    35 1   
    17     8     9 1   
    18     8    36 1   
    19     8    59 2   
    20     9    10 1   
    21     9    16 1   
    22     9    37 1   
    23    10    11 1   
    24    10    38 1   
    25    10    39 1   
    26    11    12 1   
    27    11    15 2   
    28    12    13 1   
    29    12    40 1   
    30    13    14 2   
    31    13    41 1   
    32    14    15 1   
    33    15    42 1   
    34    16    17 1   
    35    16    43 1   
    36    17    18 1   
    37    17    44 1   
    38    17    45 1   
    39    18    19 1   
    40    18    26 1   
    41    18    46 1   
    42    19    20 1   
    43    19    47 1   
    44    19    48 1   
    45    20    21 1   
    46    20    25 1   
    47    20    49 1   
    48    21    22 1   
    49    21    50 1   
    50    21    51 1   
    51    22    23 1   
    52    22    52 1   
    53    22    53 1   
    54    23    24 1   
    55    23    54 1   
    56    23    55 1   
    57    24    25 1   
    58    24    56 1   
    59    24    57 1   
    60    25    58 1   
    61    26    27 1   
    62    27    28 2   
@<TRIPOS>SUBSTRUCTURE
     1 3A7         1 TEMP              0 ****  ****    0 ROOT
