@<TRIPOS>MOLECULE
molecule
   59    62     1     0     0
SMALL
bcc


@<TRIPOS>ATOM
      1 C1           0.0000     0.0000     0.0000 ca         1 3A7      -0.122600
      2 C2           1.3960     0.0000     0.0000 ca         1 3A7      -0.102000
      3 C3           2.0820     0.0000     1.1960 ca         1 3A7      -0.111500
      4 C4           1.3900    -0.0000     2.3950 ca         1 3A7      -0.004900
      5 C5           0.0050    -0.0010     2.4010 ca         1 3A7      -0.111500
      6 C6          -0.6930     0.0050     1.2120 ca         1 3A7      -0.102000
      7 C7           0.6900     1.8270    -2.0590 c3         1 3A7       0.090000
      8 C18          0.2150    -1.8370    -6.5960 c          1 3A7       0.536900
      9 C17          1.0710    -1.2010    -5.5320 c3         1 3A7       0.044500
     10 C19          2.1010    -2.2170    -5.0330 c3         1 3A7       0.016900
     11 C20          3.0360    -1.5470    -4.0580 cc         1 3A7      -0.211900
     12 N3           2.9220    -1.5360    -2.6940 na         1 3A7      -0.279900
     13 C22          3.9650    -0.8270    -2.2120 cd         1 3A7       0.379400
     14 N2           4.6910    -0.4150    -3.2150 nc         1 3A7      -0.695000
     15 C21          4.1460    -0.8480    -4.3620 cc         1 3A7       0.304200
     16 N1           0.2230    -0.7720    -4.4110 n7         1 3A7      -0.804200
     17 C16         -0.3450     0.5590    -4.6610 c3         1 3A7       0.138800
     18 C15         -1.2200     0.9710    -3.4750 c3         1 3A7       0.118700
     19 C14         -1.7030     2.4120    -3.6690 c3         1 3A7      -0.089400
     20 C13         -0.4990     3.3630    -3.6310 c3         1 3A7      -0.067700
     21 C12         -0.9830     4.7980    -3.8560 c3         1 3A7      -0.075400
     22 C11          0.2090     5.7540    -3.8140 c3         1 3A7      -0.080400
     23 C10          0.8910     5.6570    -2.4470 c3         1 3A7      -0.078400
     24 C9           1.3830     4.2180    -2.2240 c3         1 3A7      -0.076400
     25 C8           0.1900     3.2600    -2.2680 c3         1 3A7      -0.081700
     26 N           -0.4350     0.8990    -2.2350 n          1 3A7      -0.462800
     27 C           -0.7410    -0.0000    -1.2790 c          1 3A7       0.675700
     28 O           -1.6270    -0.8110    -1.4680 o          1 3A7      -0.608100
     29 Br           2.3380    -0.0000     4.0310 br         1 3A7      -0.087100
     30 H1           1.9390    -0.0020    -0.9370 ha         1 3A7       0.151000
     31 H2           3.1650     0.0000     1.1980 ha         1 3A7       0.147500
     32 H3          -0.5320     0.0010     3.3420 ha         1 3A7       0.147500
     33 H4          -1.7760     0.0050     1.2180 ha         1 3A7       0.151000
     34 H5           1.0880     1.7260    -1.0560 h1         1 3A7       0.062200
     35 H6           1.4610     1.6030    -2.7860 h1         1 3A7       0.062200
     36 H7           0.6690    -2.2110    -7.5050 h4         1 3A7      -0.000800
     37 H8           1.5840    -0.3410    -5.9470 h1         1 3A7       0.086700
     38 H9           1.5910    -3.0350    -4.5400 hc         1 3A7       0.059200
     39 H10          2.6680    -2.5990    -5.8730 hc         1 3A7       0.059200
     40 H11          2.2020    -1.9730    -2.1550 hn         1 3A7       0.307700
     41 H12          4.1650    -0.6300    -1.1660 h5         1 3A7       0.062100
     42 H14          4.5280    -0.6620    -5.3590 h4         1 3A7       0.038100
     43 H15         -0.5190    -1.4320    -4.2830 hn         1 3A7       0.379800
     44 H17          0.4580     1.2770    -4.7830 h1         1 3A7       0.043700
     45 H18         -0.9460     0.5330    -5.5620 h1         1 3A7       0.043700
     46 H19         -2.0750     0.3090    -3.4010 h1         1 3A7       0.094700
     47 H20         -2.2010     2.4990    -4.6270 hc         1 3A7       0.055200
     48 H21         -2.3920     2.6710    -2.8740 hc         1 3A7       0.055200
     49 H22          0.2020     3.0920    -4.4120 hc         1 3A7       0.053700
     50 H23         -1.4660     4.8670    -4.8230 hc         1 3A7       0.043200
     51 H24         -1.6870     5.0650    -3.0760 hc         1 3A7       0.043200
     52 H25         -0.1380     6.7680    -3.9720 hc         1 3A7       0.042200
     53 H26          0.9150     5.4840    -4.5890 hc         1 3A7       0.042200
     54 H27          0.1820     5.9190    -1.6710 hc         1 3A7       0.043200
     55 H28          1.7350     6.3350    -2.4170 hc         1 3A7       0.043200
     56 H29          1.8650     4.1490    -1.2570 hc         1 3A7       0.045200
     57 H30          2.0860     3.9530    -3.0050 hc         1 3A7       0.045200
     58 H31         -0.5120     3.5190    -1.4850 hc         1 3A7       0.060700
     59 O1          -0.9790    -1.9240    -6.4380 o          1 3A7      -0.517100
@<TRIPOS>BOND
     1     3     2 ar
     2     3     4 ar
     3     2     1 ar
     4    28    27 2
     5    29     4 1
     6     4     5 ar
     7     1    27 1
     8     1     6 ar
     9    27    26 1
    10    21    22 1
    11    21    20 1
    12    19    18 1
    13    19    20 1
    14    26    18 1
    15    26     7 1
    16    25    20 1
    17    25     7 1
    18    25    24 1
    19     5     6 ar
    20    23    22 1
    21    23    24 1
    22    18    17 1
    23    14    15 1
    24    14    13 2
    25    15    11 2
    26    13    12 1
    27    17    16 1
    28    16     9 1
    29    11    12 1
    30    11    10 1
    31     9    10 1
    32     9     8 1
    33     8    59 2
    34     2    30 1
    35     3    31 1
    36     5    32 1
    37     6    33 1
    38     7    34 1
    39     7    35 1
    40     8    36 1
    41     9    37 1
    42    10    38 1
    43    10    39 1
    44    12    40 1
    45    13    41 1
    46    15    42 1
    47    16    43 1
    48    17    44 1
    49    17    45 1
    50    18    46 1
    51    19    47 1
    52    19    48 1
    53    20    49 1
    54    21    50 1
    55    21    51 1
    56    22    52 1
    57    22    53 1
    58    23    54 1
    59    23    55 1
    60    24    56 1
    61    24    57 1
    62    25    58 1
@<TRIPOS>SUBSTRUCTURE
     1 3A7         1 TEMP              0 ****  ****    0 ROOT
