@<TRIPOS>MOLECULE
3A8
   35    38     1     0     0
SMALL
bcc


@<TRIPOS>ATOM
      1 CAJ          0.0000     0.0000     0.0000 ca         1 3A8      -0.066000
      2 CAH          1.3820     0.0000     0.0000 ca         1 3A8      -0.135500
      3 CAP          2.0730     0.0000     1.2030 ca         1 3A8       0.132100
      4 OAB          3.4330     0.0010     1.2060 oh         1 3A8      -0.501100
      5 CAI          1.3760    -0.0000     2.4010 ca         1 3A8      -0.135500
      6 CAK         -0.0050    -0.0010     2.3950 ca         1 3A8      -0.066000
      7 CAR         -0.6920     0.0060     1.1960 ca         1 3A8      -0.136300
      8 CAV         -2.1990     0.0060     1.1920 c3         1 3A8       0.182300
      9 CAU         -2.7160     1.3890     0.9070 cc         1 3A8      -0.270600
     10 NAM         -2.7030    -0.8480     0.1090 ns         1 3A8      -0.180900
     11 CAO         -3.4300    -0.0850    -0.7260 c          1 3A8       0.690100
     12 OAA         -3.9880    -0.4900    -1.7290 o          1 3A8      -0.681500
     13 CAT         -3.4560     1.3050    -0.2570 cd         1 3A8      -0.447900
     14 NAN         -3.9180     2.5660    -0.5050 na         1 3A8       0.665400
     15 NAL         -3.5110     3.3700     0.4120 nd         1 3A8      -0.656800
     16 CAS         -2.7790     2.7300     1.3020 cc         1 3A8       0.423800
     17 CAQ         -2.1380     3.3230     2.5030 ca         1 3A8      -0.108500
     18 CAF         -1.6350     4.6210     2.4570 ca         1 3A8      -0.086000
     19 CAD         -1.0410     5.1680     3.5760 ca         1 3A8      -0.104000
     20 CAC         -0.9420     4.4290     4.7410 ca         1 3A8      -0.099000
     21 CAE         -1.4390     3.1380     4.7920 ca         1 3A8      -0.104000
     22 CAG         -2.0420     2.5850     3.6800 ca         1 3A8      -0.086000
     23 H1          -0.5410     0.0020    -0.9380 ha         1 3A8       0.110000
     24 H2           1.9240    -0.0040    -0.9380 ha         1 3A8       0.116500
     25 H3           3.7470     0.8900     1.2060 ho         1 3A8       0.405000
     26 H4           1.9150    -0.0030     3.3410 ha         1 3A8       0.116500
     27 H5          -0.5500     0.0010     3.3320 ha         1 3A8       0.110000
     28 H6          -2.5790    -0.3430     2.1450 h1         1 3A8       0.037700
     29 H7          -2.5350    -1.8300     0.0100 hn         1 3A8       0.211500
     30 H8          -4.4890     2.8260    -1.2850 hn         1 3A8       0.136700
     31 H9          -1.7120     5.2010     1.5450 ha         1 3A8       0.110000
     32 H10         -0.6500     6.1770     3.5420 ha         1 3A8       0.102500
     33 H11         -0.4720     4.8610     5.6160 ha         1 3A8       0.102000
     34 H12         -1.3610     2.5640     5.7070 ha         1 3A8       0.102500
     35 H13         -2.4300     1.5740     3.7200 ha         1 3A8       0.110000
@<TRIPOS>BOND
     1     1     2 ar  
     2     1     7 ar  
     3     1    23 1   
     4     2     3 ar  
     5     2    24 1   
     6     3     4 1   
     7     3     5 ar  
     8     4    25 1   
     9     5     6 ar  
    10     5    26 1   
    11     6     7 ar  
    12     6    27 1   
    13     7     8 1   
    14     8     9 1   
    15     8    10 1   
    16     8    28 1   
    17     9    13 2   
    18     9    16 1   
    19    10    11 1   
    20    10    29 1   
    21    11    12 2   
    22    11    13 1   
    23    13    14 1   
    24    14    15 1   
    25    14    30 1   
    26    15    16 2   
    27    16    17 1   
    28    17    18 ar  
    29    17    22 ar  
    30    18    19 ar  
    31    18    31 1   
    32    19    20 ar  
    33    19    32 1   
    34    20    21 ar  
    35    20    33 1   
    36    21    22 ar  
    37    21    34 1   
    38    22    35 1   
@<TRIPOS>SUBSTRUCTURE
     1 3A8         1 TEMP              0 ****  ****    0 ROOT
