@<TRIPOS>MOLECULE
molecule
   19    20     1     0     0
SMALL
bcc


@<TRIPOS>ATOM
      1 C1           0.0000     0.0000     0.0000 c          1 3A9       0.886200
      2 O1           1.3480     0.0000     0.0000 o          1 3A9      -0.840300
      3 C2          -0.7370     0.0000     1.2770 ca         1 3A9      -0.127600
      4 O2          -0.6070     0.0040    -1.0530 o          1 3A9      -0.840300
      5 C3          -0.0440     0.0060     2.4910 ca         1 3A9      -0.068000
      6 O3          -2.9920     0.0170     4.7400 os         1 3A9      -0.336900
      7 C4          -0.7340     0.0090     3.6810 ca         1 3A9      -0.175000
      8 C5          -2.1290     0.0040     3.6890 ca         1 3A9       0.085100
      9 C6          -4.2870    -0.4250     4.2980 c3         1 3A9       0.128400
     10 C7          -4.2950    -0.0230     2.8040 c3         1 3A9      -0.061100
     11 C8          -2.8150    -0.0070     2.4760 ca         1 3A9      -0.201300
     12 C9          -2.1370    -0.0010     1.2830 ca         1 3A9      -0.060000
     13 H3           1.0390     0.0080     2.4950 ha         1 3A9       0.159000
     14 H4          -0.1900     0.0130     4.6180 ha         1 3A9       0.114000
     15 H6A         -4.3630    -1.5020     4.3920 h1         1 3A9       0.044200
     16 H6B         -5.0630     0.1110     4.8310 h1         1 3A9       0.044200
     17 H7A         -4.7990    -0.7810     2.2160 hc         1 3A9       0.050700
     18 H7B         -4.7150     0.9690     2.6870 hc         1 3A9       0.050700
     19 H9          -2.6830     0.0780     0.3500 ha         1 3A9       0.146000
@<TRIPOS>BOND
     1     4     1 1
     2     1     2 1
     3     1     3 1
     4     5     3 ar
     5     3    12 ar
     6     5     7 ar
     7     5    13 1
     8     8     6 1
     9     6     9 1
    10     7     8 ar
    11     7    14 1
    12     8    11 ar
    13    10     9 1
    14     9    15 1
    15     9    16 1
    16    11    10 1
    17    10    17 1
    18    10    18 1
    19    12    11 ar
    20    12    19 1
@<TRIPOS>SUBSTRUCTURE
     1 3A9         1 TEMP              0 ****  ****    0 ROOT
