@<TRIPOS>MOLECULE
3A9
   19    20     1     0     0
SMALL
bcc


@<TRIPOS>ATOM
      1 C1          0.0440    0.1440   -0.0220 c         1 3A9      0.910200
      2 O1          1.3060    0.1820    0.0330 o         1 3A9     -0.833800
      3 C2         -0.7250    0.0390    1.2870 ca        1 3A9     -0.154600
      4 O2         -0.6210    0.1860   -1.0960 o         1 3A9     -0.833800
      5 C3         -0.0400   -0.0100    2.5020 ca        1 3A9     -0.084000
      6 O3         -2.9360   -0.2460    4.7910 os        1 3A9     -0.345900
      7 C4         -0.7150   -0.1060    3.7280 ca        1 3A9     -0.177000
      8 C5         -2.0990   -0.1500    3.6770 ca        1 3A9      0.080100
      9 C6         -4.3020   -0.2630    4.3030 c3        1 3A9      0.123400
     10 C7         -4.2750   -0.1700    2.7650 c3        1 3A9     -0.041100
     11 C8         -2.8180   -0.1020    2.4570 ca        1 3A9     -0.191300
     12 C9         -2.1300   -0.0070    1.2610 ca        1 3A9     -0.054000
     13 H3          1.0620    0.0290    2.4760 ha        1 3A9      0.154000
     14 H4         -0.1760   -0.1450    4.6810 ha        1 3A9      0.124000
     15 H6A        -4.7530   -1.2200    4.6630 h1        1 3A9      0.035700
     16 H6B        -4.8160    0.6110    4.7730 h1        1 3A9      0.035700
     17 H7A        -4.7540   -1.0660    2.3000 hc        1 3A9      0.047700
     18 H7B        -4.8160    0.7400    2.4090 hc        1 3A9      0.047700
     19 H9         -2.6410    0.0340    0.2860 ha        1 3A9      0.156000
@<TRIPOS>BOND
     1    1    2 1   
     2    1    3 1   
     3    1    4 1   
     4    3    5 ar  
     5    3   12 ar  
     6    5    7 ar  
     7    5   13 1   
     8    6    8 1   
     9    6    9 1   
    10    7    8 ar  
    11    7   14 1   
    12    8   11 ar  
    13    9   10 1   
    14    9   15 1   
    15    9   16 1   
    16   10   11 1   
    17   10   17 1   
    18   10   18 1   
    19   11   12 ar  
    20   12   19 1   
@<TRIPOS>SUBSTRUCTURE
     1 3A9         1 TEMP              0 ****  ****    0 ROOT
