@<TRIPOS>MOLECULE
molecule
   19    19     1     0     0
SMALL
bcc


@<TRIPOS>ATOM
      1 N3           0.0000     0.0000     0.0000 nv         1 3AB      -0.985200
      2 C3           1.3970     0.0000     0.0000 ca         1 3AB       0.182600
      3 C2           2.0900     0.0000     1.2010 ca         1 3AB      -0.049000
      4 C4           2.0930    -0.0070    -1.2030 ca         1 3AB      -0.069000
      5 C5           3.4760    -0.0080    -1.2080 ca         1 3AB      -0.105000
      6 C6           4.1730    -0.0020    -0.0180 ca         1 3AB      -0.123000
      7 C1           3.4850    -0.0000     1.1960 ca         1 3AB      -0.210600
      8 C1'          4.2310     0.0060     2.4730 c          1 3AB       0.507700
      9 O1'          3.6290     0.0080     3.5290 o          1 3AB      -0.419100
     10 N1'          5.5790     0.0100     2.4660 nz         1 3AB      -0.678400
     11 HN3         -0.5000     0.8670     0.0020 hn         1 3AB       0.450800
     12 HN3A        -0.5000    -0.8670     0.0080 hn         1 3AB       0.450800
     13 H2           1.5500     0.0020     2.1400 ha         1 3AB       0.175000
     14 H4           1.5500    -0.0120    -2.1410 ha         1 3AB       0.171000
     15 H5           4.0130    -0.0110    -2.1480 ha         1 3AB       0.163000
     16 H6           5.2570    -0.0020    -0.0260 ha         1 3AB       0.108000
     17 HN1'         5.9180     0.0150     3.4070 hn         1 3AB       0.477467
     18 HN1A         5.9130    -0.8080     1.9950 hn         1 3AB       0.477467
     19 H1'3         5.9080     0.8260     1.9890 hn         1 3AB       0.477467
@<TRIPOS>BOND
     1     2     1 1   
     2     1    11 1   
     3     1    12 1   
     4     4     2 ar  
     5     3     2 ar  
     6     7     3 ar  
     7     3    13 1   
     8     5     4 ar  
     9     4    14 1   
    10     6     5 ar  
    11     5    15 1   
    12     6     7 ar  
    13     6    16 1   
    14     8     7 1   
    15     9     8 2   
    16     8    10 1   
    17    10    17 1   
    18    10    18 1   
    19    19    10 1   
@<TRIPOS>SUBSTRUCTURE
     1 3AB         1 TEMP              0 ****  ****    0 ROOT
