@<TRIPOS>MOLECULE
3AB
   19    19     1     0     0
SMALL
bcc


@<TRIPOS>ATOM
      1 N3           0.0000     0.0000     0.0000 nv         1 3AB      -0.555200
      2 C3           1.3970     0.0000     0.0000 ca         1 3AB       0.048600
      3 C2           2.0900     0.0000     1.2010 ca         1 3AB      -0.003000
      4 C4           2.0930    -0.0070    -1.2030 ca         1 3AB      -0.027000
      5 C5           3.4760    -0.0080    -1.2080 ca         1 3AB      -0.070000
      6 C6           4.1730    -0.0020    -0.0180 ca         1 3AB      -0.092000
      7 C1           3.4850    -0.0000     1.1960 ca         1 3AB      -0.234600
      8 C1'          4.2310     0.0060     2.4730 c          1 3AB       0.356700
      9 O1'          3.6290     0.0080     3.5290 o          1 3AB      -0.430100
     10 N1'          5.5790     0.0100     2.4660 nz         1 3AB       0.199600
     11 HN3         -0.5000     0.8670     0.0020 hn         1 3AB       0.293800
     12 HN3A        -0.5000    -0.8670     0.0080 hn         1 3AB       0.293800
     13 H2           1.5500     0.0020     2.1400 ha         1 3AB       0.138000
     14 H4           1.5500    -0.0120    -2.1410 ha         1 3AB       0.131000
     15 H5           4.0130    -0.0110    -2.1480 ha         1 3AB       0.128000
     16 H6           5.2570    -0.0020    -0.0260 ha         1 3AB       0.080000
     17 HN1'         5.9180     0.0150     3.4070 hn         1 3AB       0.246800
     18 HN1A         5.9130    -0.8080     1.9950 hn         1 3AB       0.246800
     19 H1'3         5.9080     0.8260     1.9890 hn         1 3AB       0.246800
@<TRIPOS>BOND
     1     1     2 1   
     2     1    11 1   
     3     1    12 1   
     4     2     3 ar  
     5     2     4 ar  
     6     3     7 ar  
     7     3    13 1   
     8     4     5 ar  
     9     4    14 1   
    10     5     6 ar  
    11     5    15 1   
    12     6     7 ar  
    13     6    16 1   
    14     7     8 1   
    15     8     9 2   
    16     8    10 1   
    17    10    17 1   
    18    10    18 1   
    19    10    19 1   
@<TRIPOS>SUBSTRUCTURE
     1 3AB         1 TEMP              0 ****  ****    0 ROOT
