@<TRIPOS>MOLECULE
3AC
   37    37     1     0     0
SMALL
bcc


@<TRIPOS>ATOM
      1 O11         0.2470    0.2150   -0.4990 os        1 3AC     -0.165000
      2 C11         1.6170    0.1350   -0.2440 c2        1 3AC      0.186000
      3 C12         2.1200    0.1620    1.0320 c2        1 3AC     -0.402000
      4 I12         0.9950    0.4770    2.6780 i         1 3AC      0.206000
      5 C13         3.5520   -0.0720    1.2310 c2        1 3AC      0.342000
      6 O13         4.1610   -0.0690    2.3170 o         1 3AC     -0.341000
      7 N14         4.3270   -0.3240    0.0790 n         1 3AC     -0.279000
      8 C15         3.7950   -0.3580   -1.1890 c2        1 3AC      0.097000
      9 C51         4.7050   -0.6430   -2.3410 c3        1 3AC     -0.201000
     10 C16         2.4440   -0.1190   -1.3930 c2        1 3AC     -0.207000
     11 C61         1.8370   -0.1310   -2.7500 c3        1 3AC     -0.101000
     12 C62         1.2920   -1.4900   -3.1200 c3        1 3AC     -0.209000
     13 C21        -0.3190    1.4890   -0.4410 ca        1 3AC      0.075000
     14 C22         0.4070    2.6660   -0.6520 ca        1 3AC     -0.174000
     15 C23        -0.2740    3.8820   -0.6480 ca        1 3AC     -0.091000
     16 C24        -1.6510    3.9240   -0.4460 ca        1 3AC     -0.150000
     17 C25        -2.3730    2.7380   -0.2380 ca        1 3AC      0.026000
     18 C26        -1.7050    1.5070   -0.2300 ca        1 3AC     -0.133000
     19 C27        -3.8080    2.7750   -0.0260 c2        1 3AC     -0.412000
     20 C28        -4.6080    3.8170   -0.0630 c1        1 3AC      0.173000
     21 N29        -7.4630    7.2570   -0.3020 n1        1 3AC     -0.074000
     22 C29        -6.7280    6.3620   -0.2230 c1        1 3AC     -0.200000
     23 H14         5.3020   -0.4980    0.2080 hn        1 3AC      0.251000
     24 H511        4.8370    0.2890   -2.9480 hc        1 3AC      0.105667
     25 H512        5.7140   -0.9990   -2.0180 hc        1 3AC      0.105667
     26 H513        4.2450   -1.4300   -2.9900 hc        1 3AC      0.105667
     27 H611        2.5930    0.1960   -3.5140 hc        1 3AC      0.089500
     28 H612        0.9990    0.6200   -2.7750 hc        1 3AC      0.089500
     29 H621        0.8320   -1.4530   -4.1370 hc        1 3AC      0.078667
     30 H622        2.1030   -2.2570   -3.1250 hc        1 3AC      0.078667
     31 H623        0.5110   -1.8040   -2.3860 hc        1 3AC      0.078667
     32 H22         1.4940    2.6290   -0.8130 ha        1 3AC      0.149000
     33 H23         0.2850    4.8170   -0.8080 ha        1 3AC      0.142000
     34 H24        -2.1760    4.8910   -0.4450 ha        1 3AC      0.138000
     35 H26        -2.2440    0.5640   -0.0660 ha        1 3AC      0.155000
     36 H27        -4.2840    1.7920    0.1960 ha        1 3AC      0.203000
     37 H28        -6.0450    5.5310   -0.1490 ha        1 3AC      0.265000
@<TRIPOS>BOND
     1    1    2 1
     2    1   13 1
     3    2    3 1
     4    2   10 1
     5    3    4 1
     6    3    5 1
     7    5    6 1
     8    5    7 1
     9    7    8 1
    10    7   23 1
    11    8    9 1
    12    8   10 1
    13    9   24 1
    14    9   25 1
    15    9   26 1
    16   10   11 1
    17   11   12 1
    18   11   27 1
    19   11   28 1
    20   12   29 1
    21   12   30 1
    22   12   31 1
    23   13   14 1
    24   13   18 1
    25   14   15 1
    26   14   32 1
    27   15   16 1
    28   15   33 1
    29   16   17 1
    30   16   34 1
    31   17   18 1
    32   17   19 1
    33   18   35 1
    34   19   20 1
    35   19   36 1
    36   21   22 1
    37   22   37 1
@<TRIPOS>SUBSTRUCTURE
     1 3AC         1 TEMP              0 ****  ****    0 ROOT
