@<TRIPOS>MOLECULE
molecule
   31    33     1     0     0
SMALL
bcc


@<TRIPOS>ATOM
      1 O5'          0.0000     0.0000     0.0000 oh         1 3AD      -0.595800
      2 C5'          1.4280     0.0000     0.0000 c3         1 3AD       0.147400
      3 C4'          1.9380     0.0000     1.4420 c3         1 3AD       0.143100
      4 O4'          1.4960    -1.1870     2.1340 os         1 3AD      -0.400600
      5 C3'          3.4800    -0.0790     1.4700 c3         1 3AD      -0.146400
      6 C2'          3.7890    -0.9770     2.6920 c3         1 3AD       0.103100
      7 O2'          4.5560    -0.2580     3.6590 oh         1 3AD      -0.583800
      8 C1'          2.3960    -1.3350     3.2520 c3         1 3AD       0.257800
      9 N9           2.3820    -2.7150     3.7400 na         1 3AD      -0.250000
     10 C8           2.0920    -3.8270     3.0050 cc         1 3AD       0.429700
     11 N7           2.1740    -4.8880     3.7550 nd         1 3AD      -0.589100
     12 C5           2.5280    -4.5270     5.0120 ca         1 3AD      -0.210200
     13 C6           2.7510    -5.2200     6.2130 ca         1 3AD       0.788200
     14 N6           2.6300    -6.5970     6.2690 nv         1 3AD      -0.988500
     15 N1           3.0870    -4.5240     7.2920 nb         1 3AD      -0.835000
     16 C2           3.2050    -3.2090     7.2490 ca         1 3AD       0.739900
     17 N3           2.9990    -2.5170     6.1490 nb         1 3AD      -0.786000
     18 C4           2.6590    -3.1280     5.0170 ca         1 3AD       0.477800
     19 HO5'        -0.3140    -0.1500    -0.8760 ho         1 3AD       0.406000
     20 H5'1         1.7890     0.8850    -0.5110 h1         1 3AD       0.031200
     21 H5'2         1.7890    -0.8840    -0.5110 h1         1 3AD       0.031200
     22 H4'          1.6000     0.8860     1.9660 h1         1 3AD       0.071700
     23 H3'1         3.8510    -0.5360     0.5610 hc         1 3AD       0.067200
     24 H3'2         3.9060     0.9080     1.6080 hc         1 3AD       0.067200
     25 H2'          4.3100    -1.8730     2.3770 h1         1 3AD       0.056700
     26 HO2'         5.4730    -0.4310     3.5250 ho         1 3AD       0.412000
     27 H1'          2.1240    -0.6480     4.0440 h2         1 3AD       0.109700
     28 H8           1.8310    -3.8270     1.9540 h5         1 3AD       0.087800
     29 HN61         2.5920    -7.0610     7.1550 hn         1 3AD       0.449800
     30 HN62         2.6120    -7.1320     5.4230 hn         1 3AD       0.449800
     31 H2           3.4810    -2.6800     8.1530 h5         1 3AD       0.061100
@<TRIPOS>BOND
     1     1     2 1
     2     1    19 1
     3     2     3 1
     4     2    20 1
     5     2    21 1
     6     3     4 1
     7     3     5 1
     8     3    22 1
     9     4     8 1
    10     5     6 1
    11     5    23 1
    12     5    24 1
    13     6     7 1
    14     6     8 1
    15     6    25 1
    16     7    26 1
    17     8     9 1
    18     8    27 1
    19     9    10 1
    20     9    18 1
    21    10    11 2
    22    10    28 1
    23    11    12 1
    24    12    13 ar
    25    12    18 ar
    26    13    14 1
    27    13    15 ar
    28    14    29 1
    29    14    30 1
    30    15    16 ar
    31    16    17 ar
    32    16    31 1
    33    17    18 ar
@<TRIPOS>SUBSTRUCTURE
     1 3AD         1 TEMP              0 ****  ****    0 ROOT
