@<TRIPOS>MOLECULE
molecule
   17    17     1     0     0
SMALL
bcc


@<TRIPOS>ATOM
      1 O01          0.0000     0.0000     0.0000 o          1 3AE      -0.829300
      2 C01          1.2580     0.0000     2.4910 ca         1 3AE      -0.109000
      3 C02          1.9530     0.0000     1.2800 ca         1 3AE      -0.071600
      4 F01          4.3300    -1.2970     5.3910 f          1 3AE      -0.238967
      5 F02          5.3110     0.6840     4.8140 f          1 3AE      -0.238967
      6 O            1.8880    -0.0000    -1.1670 o          1 3AE      -0.829300
      7 C03          1.2140     0.0000     0.0000 c          1 3AE       0.878200
      8 C04          4.0320     0.0020     2.4820 ca         1 3AE      -0.114500
      9 C05          3.3380     0.0120     3.6780 ca         1 3AE      -0.209300
     10 C06          3.3490     0.0010     1.2840 ca         1 3AE      -0.109000
     11 F            3.3320     0.6780     5.9560 f          1 3AE      -0.238967
     12 C07          4.0910     0.0190     4.9840 c3         1 3AE       0.669200
     13 C            1.9540     0.0060     3.6820 ca         1 3AE      -0.114500
     14 H1           0.1750    -0.0040     2.4950 ha         1 3AE       0.157500
     15 H3           5.1160     0.0030     2.4850 ha         1 3AE       0.120500
     16 H4           3.8940    -0.0030     0.3480 ha         1 3AE       0.157500
     17 H5           1.4160     0.0100     4.6220 ha         1 3AE       0.120500
@<TRIPOS>BOND
     1     4    12 1   
     2    11    12 1   
     3     5    12 1   
     4    12     9 1   
     5     9    13 ar  
     6     9     8 ar  
     7    13     2 ar  
     8     8    10 ar  
     9     2     3 ar  
    10    10     3 ar  
    11     3     7 1   
    12     7     1 1   
    13     7     6 1   
    14     2    14 1   
    15     8    15 1   
    16    10    16 1   
    17    13    17 1   
@<TRIPOS>SUBSTRUCTURE
     1 3AE         1 TEMP              0 ****  ****    0 ROOT
