@<TRIPOS>MOLECULE
3AE
   17    17     1     0     0
SMALL
bcc


@<TRIPOS>ATOM
      1 O01        -0.0750   -0.0260   -0.0260 o         1 3AE     -0.821300
      2 C01         1.2510   -0.0040    2.4620 ca        1 3AE     -0.116000
      3 C02         1.9460   -0.0060    1.2480 ca        1 3AE     -0.093600
      4 F01         4.3830   -1.2390    5.4840 f         1 3AE     -0.256300
      5 F02         5.3220    0.6310    4.9610 f         1 3AE     -0.256300
      6 O           1.8650   -0.0210   -1.1400 o         1 3AE     -0.821300
      7 C03         1.1870   -0.0190   -0.0750 c         1 3AE      0.906200
      8 C04         4.0440    0.0160    2.4640 ca        1 3AE     -0.112000
      9 C05         3.3380    0.0180    3.6700 ca        1 3AE     -0.200300
     10 C06         3.3460    0.0050    1.2590 ca        1 3AE     -0.116000
     11 F           3.4500    0.6260    6.0360 f         1 3AE     -0.256300
     12 C07         4.0930    0.0120    4.9850 c3        1 3AE      0.688200
     13 C           1.9400    0.0080    3.6720 ca        1 3AE     -0.112000
     14 H1          0.1490   -0.0110    2.4320 ha        1 3AE      0.160000
     15 H3          5.1430    0.0290    2.4740 ha        1 3AE      0.123000
     16 H4          3.8750    0.0040    0.2920 ha        1 3AE      0.160000
     17 H5          1.3960    0.0130    4.6270 ha        1 3AE      0.123000
@<TRIPOS>BOND
     1    1    7 1   
     2    2    3 ar  
     3    2   13 ar  
     4    2   14 1   
     5    3    7 1   
     6    3   10 ar  
     7    4   12 1   
     8    5   12 1   
     9    6    7 1   
    10    8    9 ar  
    11    8   10 ar  
    12    8   15 1   
    13    9   12 1   
    14    9   13 ar  
    15   10   16 1   
    16   11   12 1   
    17   13   17 1   
@<TRIPOS>SUBSTRUCTURE
     1 3AE         1 TEMP              0 ****  ****    0 ROOT
