@<TRIPOS>MOLECULE
3AF
   77    79     1     0     0
SMALL
bcc


@<TRIPOS>ATOM
      1 C1          0.3120   -1.2260   -1.1780 c3        1 3AF     -0.106100
      2 C2          1.7980   -1.0930   -0.9460 c3        1 3AF     -0.086400
      3 C3          2.0690   -0.3450    0.3420 c3        1 3AF     -0.130400
      4 C4          3.5410    0.0330    0.5310 c3        1 3AF      0.139500
      5 C5          3.6960    0.9800    1.7090 c3        1 3AF     -0.150100
      6 N6          4.3820   -1.2300    0.7280 n4        1 3AF     -0.811000
      7 C7          5.8600   -1.0610    0.4510 c3        1 3AF      0.410000
      8 N8          6.2040   -0.9500   -1.0280 n4        1 3AF     -0.867600
      9 C9          6.6570   -2.1760    1.0670 ca        1 3AF     -0.274300
     10 C12         7.6130   -1.8460    2.0390 ca        1 3AF     -0.079500
     11 C13         8.3600   -2.8490    2.6470 ca        1 3AF     -0.097500
     12 C10         6.4690   -3.5200    0.7040 ca        1 3AF     -0.079500
     13 C11         7.2190   -4.5210    1.3110 ca        1 3AF     -0.097500
     14 C14         8.1710   -4.2020    2.3000 ca        1 3AF     -0.024500
     15 C15         8.9450   -5.2010    2.9910 cc        1 3AF      0.276200
     16 O18         8.9320   -6.5330    2.5390 os        1 3AF     -0.349800
     17 C16         9.7530   -5.0880    4.1200 cd        1 3AF     -0.173300
     18 C17        10.2690   -6.3970    4.3980 cd        1 3AF     -0.173300
     19 C19         9.7580   -7.2510    3.4240 cc        1 3AF      0.276200
     20 C20         9.9700   -8.6610    3.2210 ca        1 3AF     -0.024500
     21 C23         9.5720   -9.3340    2.0490 ca        1 3AF     -0.097500
     22 C24         9.8390  -10.6880    1.8870 ca        1 3AF     -0.079500
     23 C21        10.6280   -9.3910    4.2310 ca        1 3AF     -0.097500
     24 C22        10.8940  -10.7470    4.0720 ca        1 3AF     -0.079500
     25 C25        10.5060  -11.4040    2.8940 ca        1 3AF     -0.274300
     26 C26        10.8320  -12.8640    2.7600 c3        1 3AF      0.410000
     27 N27         9.5400  -13.6690    2.7240 n4        1 3AF     -0.867600
     28 N28        11.7440  -13.1120    1.5780 n4        1 3AF     -0.811000
     29 C29        12.4730  -14.4570    1.5990 c3        1 3AF      0.139500
     30 C30        13.6530  -14.4220    2.5550 c3        1 3AF     -0.150100
     31 C31        12.9430  -14.8190    0.1870 c3        1 3AF     -0.130400
     32 C32        11.8070  -15.1060   -0.7710 c3        1 3AF     -0.086400
     33 C33        12.3380  -15.6780   -2.0650 c3        1 3AF     -0.106100
     34 H34         0.1220   -1.7980   -2.1190 hc        1 3AF      0.071033
     35 H35        -0.1650   -0.2200   -1.2800 hc        1 3AF      0.071033
     36 H36        -0.1780   -1.7650   -0.3310 hc        1 3AF      0.071033
     37 H37         2.2580   -0.5460   -1.8110 hc        1 3AF      0.025200
     38 H38         2.2510   -2.1200   -0.9100 hc        1 3AF      0.025200
     39 H40         1.6880   -0.9250    1.2240 hc        1 3AF      0.114200
     40 H39         1.4910    0.6260    0.3270 hc        1 3AF      0.114200
     41 H41         3.9180    0.5240   -0.4130 hx        1 3AF      0.081700
     42 H43         3.2720    0.5460    2.6490 hc        1 3AF      0.096700
     43 H42         3.1170    1.9170    1.4820 hc        1 3AF      0.096700
     44 H44         4.7590    1.2750    1.8840 hc        1 3AF      0.096700
     45 H45         4.3110   -1.5070    1.7240 hn        1 3AF      0.478800
     46 H7          6.1540   -0.0530    0.9140 hx        1 3AF      0.170700
     47 H47         6.0280   -1.8350   -1.5210 hn        1 3AF      0.487800
     48 H46         7.2180   -0.7520   -1.0850 hn        1 3AF      0.487800
     49 H50         7.7840   -0.7970    2.3380 ha        1 3AF      0.151500
     50 H51         9.1100   -2.5730    3.4110 ha        1 3AF      0.184000
     51 H48         5.7250   -3.8020   -0.0570 ha        1 3AF      0.151500
     52 H49         7.0680   -5.5760    1.0260 ha        1 3AF      0.184000
     53 H52         9.9660   -4.1910    4.7050 ha        1 3AF      0.198000
     54 H53        10.9400   -6.6460    5.2220 ha        1 3AF      0.198000
     55 H56         9.0490   -8.7740    1.2540 ha        1 3AF      0.184000
     56 H57         9.5240  -11.1840    0.9540 ha        1 3AF      0.151500
     57 H54        10.9390   -8.8880    5.1650 ha        1 3AF      0.184000
     58 H55        11.4150  -11.2870    4.8810 ha        1 3AF      0.151500
     59 H26        11.4030  -13.2360    3.6820 hx        1 3AF      0.170700
     60 H59         9.0460  -13.4840    3.6140 hn        1 3AF      0.487800
     61 H58         9.7090  -14.6800    2.6460 hn        1 3AF      0.487800
     62 H60        12.4590  -12.3630    1.6110 hn        1 3AF      0.478800
     63 H61        11.7190  -15.2250    1.9440 hx        1 3AF      0.081700
     64 H63        14.1080  -15.4500    2.5860 hc        1 3AF      0.096700
     65 H62        14.4490  -13.7170    2.2070 hc        1 3AF      0.096700
     66 H64        13.3530  -14.1550    3.5970 hc        1 3AF      0.096700
     67 H66        13.6170  -14.0240   -0.2270 hc        1 3AF      0.114200
     68 H65        13.5750  -15.7500    0.2910 hc        1 3AF      0.114200
     69 H68        11.0920  -15.8400   -0.3110 hc        1 3AF      0.025200
     70 H67        11.2330  -14.1680   -1.0000 hc        1 3AF      0.025200
     71 H71        13.0550  -14.9710   -2.5480 hc        1 3AF      0.071033
     72 H69        11.4940  -15.8660   -2.7740 hc        1 3AF      0.071033
     73 H70        12.8630  -16.6470   -1.8840 hc        1 3AF      0.071033
     74 H621        3.9780   -1.9940    0.1690 hn        1 3AF      0.478800
     75 H83         5.6940   -0.1890   -1.4940 hn        1 3AF      0.487800
     76 H273        8.9280  -13.3630    1.9560 hn        1 3AF      0.487800
     77 H282       11.2410  -13.0170    0.6850 hn        1 3AF      0.478800
@<TRIPOS>BOND
     1    1    2 1
     2    1   34 1
     3    1   35 1
     4    1   36 1
     5    2    3 1
     6    2   37 1
     7    2   38 1
     8    3    4 1
     9    3   39 1
    10    3   40 1
    11    4    5 1
    12    4    6 1
    13    4   41 1
    14    5   42 1
    15    5   43 1
    16    5   44 1
    17    6    7 1
    18    6   45 1
    19    6   74 1
    20    7    8 1
    21    7    9 1
    22    7   46 1
    23    8   47 1
    24    8   48 1
    25    8   75 1
    26    9   10 ar
    27    9   12 ar
    28   10   11 ar
    29   10   49 1
    30   11   14 ar
    31   11   50 1
    32   12   13 ar
    33   12   51 1
    34   13   14 ar
    35   13   52 1
    36   14   15 1
    37   15   16 1
    38   15   17 2
    39   16   19 1
    40   17   18 1
    41   17   53 1
    42   18   19 2
    43   18   54 1
    44   19   20 1
    45   20   21 ar
    46   20   23 ar
    47   21   22 ar
    48   21   55 1
    49   22   25 ar
    50   22   56 1
    51   23   24 ar
    52   23   57 1
    53   24   25 ar
    54   24   58 1
    55   25   26 1
    56   26   27 1
    57   26   28 1
    58   26   59 1
    59   27   60 1
    60   27   61 1
    61   27   76 1
    62   28   29 1
    63   28   62 1
    64   28   77 1
    65   29   30 1
    66   29   31 1
    67   29   63 1
    68   30   64 1
    69   30   65 1
    70   30   66 1
    71   31   32 1
    72   31   67 1
    73   31   68 1
    74   32   33 1
    75   32   69 1
    76   32   70 1
    77   33   71 1
    78   33   72 1
    79   33   73 1
@<TRIPOS>SUBSTRUCTURE
     1 3AF         1 TEMP              0 ****  ****    0 ROOT
