@<TRIPOS>MOLECULE
molecule
   86    89     1     0     0
SMALL
bcc


@<TRIPOS>ATOM
      1 N32         -1.2220     2.1980    -0.6930 n1         1 3AJ      -0.367800
      2 C29         -0.6800     1.2460    -0.3930 c1         1 3AJ       0.262700
      3 C28          0.0000     0.0000     0.0000 cx         1 3AJ      -0.070900
      4 C31          1.5300     0.0000     0.0000 cx         1 3AJ      -0.108900
      5 C30          0.7660     0.0000     1.3250 cx         1 3AJ      -0.108900
      6 C27         -0.7070    -1.2940    -0.4080 c3         1 3AJ       0.178400
      7 O25         -2.1220    -1.1040    -0.3470 os         1 3AJ      -0.396600
      8 C19         -2.8800    -2.2590    -0.7120 c3         1 3AJ       0.153100
      9 C18         -4.2040    -2.2600     0.0530 c3         1 3AJ       0.156100
     10 O24         -3.9450    -2.1320     1.4520 oh         1 3AJ      -0.602800
     11 C17         -4.9540    -3.5700    -0.2100 c3         1 3AJ      -0.054200
     12 C20         -3.1510    -2.2360    -2.2200 c3         1 3AJ       0.168300
     13 O23         -3.8470    -1.0380    -2.5650 oh         1 3AJ      -0.579800
     14 C21         -4.0010    -3.4410    -2.5710 ce         1 3AJ      -0.107200
     15 C22         -3.7100    -4.2220    -3.6100 c2         1 3AJ      -0.208000
     16 C16         -5.1680    -3.7070    -1.7040 cf         1 3AJ      -0.087200
     17 C15         -6.3650    -4.0550    -2.2180 ce         1 3AJ      -0.112000
     18 C14         -6.5330    -4.1770    -3.6680 ce         1 3AJ      -0.165000
     19 C4          -7.7160    -4.5210    -4.1760 c2         1 3AJ      -0.088400
     20 C3          -8.9310    -4.7920    -3.3010 c3         1 3AJ      -0.045200
     21 C2         -10.1420    -4.0040    -3.7980 c3         1 3AJ      -0.079400
     22 C5          -7.9470    -4.6620    -5.6510 c3         1 3AJ      -0.036500
     23 C7          -6.8330    -4.1580    -6.5730 c3         1 3AJ      -0.078400
     24 C8          -7.5900    -3.8680    -7.8990 c3         1 3AJ      -0.081400
     25 C9          -9.0690    -3.6150    -7.5100 c3         1 3AJ      -0.054700
     26 C6          -9.0930    -3.6670    -5.9900 c3         1 3AJ      -0.060000
     27 C10         -8.7430    -2.2860    -5.4320 c3         1 3AJ      -0.091100
     28 C1         -10.3430    -4.1660    -5.3140 c3         1 3AJ      -0.066400
     29 C11         -9.5210    -2.2390    -8.0030 c3         1 3AJ      -0.069700
     30 C26        -10.9720    -1.9950    -7.5780 c3         1 3AJ      -0.096100
     31 C12         -9.4220    -2.1860    -9.5300 c3         1 3AJ      -0.082400
     32 C13         -9.7540    -0.7730   -10.0130 c3         1 3AJ      -0.082400
     33 C33         -9.6550    -0.7200   -11.5390 c3         1 3AJ      -0.065400
     34 C34         -9.9860     0.6930   -12.0240 c3         1 3AJ       0.146800
     35 O37        -11.3150     1.0350   -11.6200 oh         1 3AJ      -0.603800
     36 C36         -8.9970     1.6870   -11.4130 c3         1 3AJ      -0.120100
     37 C35         -9.8860     0.7450   -13.5490 c3         1 3AJ      -0.120100
     38 H1           1.9980    -0.9390    -0.2700 hc         1 3AJ       0.085950
     39 H2           1.9980     0.9390    -0.2700 hc         1 3AJ       0.085950
     40 H3           0.7660     0.9390     1.8640 hc         1 3AJ       0.085950
     41 H4           0.7660    -0.9390     1.8640 hc         1 3AJ       0.085950
     42 H5          -0.4210    -1.5590    -1.4190 h1         1 3AJ       0.031700
     43 H6          -0.4200    -2.0900     0.2690 h1         1 3AJ       0.031700
     44 H7          -2.3220    -3.1540    -0.4620 h1         1 3AJ       0.052700
     45 H8          -4.8110    -1.4270    -0.2820 h1         1 3AJ       0.068700
     46 H9          -4.5970    -1.5730     1.8420 ho         1 3AJ       0.407000
     47 H10         -4.3660    -4.4050     0.1510 hc         1 3AJ       0.058200
     48 H11         -5.9130    -3.5480     0.2940 hc         1 3AJ       0.058200
     49 H12         -2.2120    -2.2850    -2.7580 h1         1 3AJ       0.036700
     50 H13         -3.5590    -0.7400    -3.4120 ho         1 3AJ       0.404000
     51 H14         -4.3350    -5.0770    -3.8380 ha         1 3AJ       0.122500
     52 H15         -2.8470    -4.0020    -4.2280 ha         1 3AJ       0.122500
     53 H16         -7.2030    -4.2440    -1.5580 ha         1 3AJ       0.134000
     54 H17         -5.6940    -3.9930    -4.3270 ha         1 3AJ       0.145000
     55 H18         -9.1600    -5.8510    -3.3290 hc         1 3AJ       0.049200
     56 H19         -8.7080    -4.4970    -2.2830 hc         1 3AJ       0.049200
     57 H20         -9.9950    -2.9550    -3.5720 hc         1 3AJ       0.044200
     58 H21        -11.0270    -4.3600    -3.2850 hc         1 3AJ       0.044200
     59 H22         -8.2310    -5.6760    -5.9050 hc         1 3AJ       0.066700
     60 H23         -6.3910    -3.2510    -6.1780 hc         1 3AJ       0.047200
     61 H24         -6.0830    -4.9260    -6.7210 hc         1 3AJ       0.047200
     62 H25         -7.1760    -2.9870    -8.3760 hc         1 3AJ       0.044200
     63 H26         -7.5210    -4.7230    -8.5600 hc         1 3AJ       0.044200
     64 H27         -9.7010    -4.3930    -7.9200 hc         1 3AJ       0.053700
     65 H28         -8.0110    -1.8120    -6.0740 hc         1 3AJ       0.041033
     66 H29         -9.6370    -1.6760    -5.3910 hc         1 3AJ       0.041033
     67 H30         -8.3330    -2.3930    -4.4350 hc         1 3AJ       0.041033
     68 H31        -11.1940    -3.5770    -5.6350 hc         1 3AJ       0.045700
     69 H32        -10.4990    -5.2110    -5.5540 hc         1 3AJ       0.045700
     70 H33         -8.8860    -1.4740    -7.5740 hc         1 3AJ       0.059700
     71 H34        -11.5020    -1.4890    -8.3760 hc         1 3AJ       0.037700
     72 H35        -11.4520    -2.9440    -7.3710 hc         1 3AJ       0.037700
     73 H36        -10.9880    -1.3800    -6.6860 hc         1 3AJ       0.037700
     74 H37         -8.4160    -2.4450    -9.8350 hc         1 3AJ       0.040700
     75 H38        -10.1240    -2.8890    -9.9620 hc         1 3AJ       0.040700
     76 H39        -10.7600    -0.5130    -9.7070 hc         1 3AJ       0.052200
     77 H40         -9.0520    -0.0690    -9.5810 hc         1 3AJ       0.052200
     78 H41        -10.3560    -1.4240   -11.9710 hc         1 3AJ       0.047200
     79 H42         -8.6480    -0.9790   -11.8450 hc         1 3AJ       0.047200
     80 H43        -11.6220     1.7630   -12.1350 ho         1 3AJ       0.401000
     81 H44         -9.3240     1.9560   -10.4160 hc         1 3AJ       0.041700
     82 H45         -8.9510     2.5760   -12.0300 hc         1 3AJ       0.041700
     83 H46         -8.0140     1.2330   -11.3600 hc         1 3AJ       0.041700
     84 H47        -10.1040     1.7500   -13.8910 hc         1 3AJ       0.041700
     85 H48        -10.6000     0.0540   -13.9820 hc         1 3AJ       0.041700
     86 H49         -8.8850     0.4690   -13.8550 hc         1 3AJ       0.041700
@<TRIPOS>BOND
     1    21    20 1   
     2    21    28 1   
     3    37    34 1   
     4    20    19 1   
     5    28    26 1   
     6     5     3 1   
     7     5     4 1   
     8    11     9 1   
     9    11    16 1   
    10    27    26 1   
    11     6     3 1   
    12     6     7 1   
    13     3     4 1   
    14     3     2 1   
    15    17    16 2   
    16    17    18 1   
    17     9    10 1   
    18     9     8 1   
    19    16    14 1   
    20    26    22 1   
    21    26    25 1   
    22    34    36 1   
    23    34    33 1   
    24    34    35 1   
    25    19    18 2   
    26    19    22 1   
    27    32    33 1   
    28    32    31 1   
    29     7     8 1   
    30    31    29 1   
    31    29    25 1   
    32    29    30 1   
    33    22    23 1   
    34     8    12 1   
    35     2     1 3   
    36    25    24 1   
    37    14    15 2   
    38    14    12 1   
    39    12    13 1   
    40    23    24 1   
    41     4    38 1   
    42     4    39 1   
    43     5    40 1   
    44     5    41 1   
    45     6    42 1   
    46     6    43 1   
    47     8    44 1   
    48     9    45 1   
    49    10    46 1   
    50    11    47 1   
    51    11    48 1   
    52    12    49 1   
    53    13    50 1   
    54    15    51 1   
    55    15    52 1   
    56    17    53 1   
    57    18    54 1   
    58    20    55 1   
    59    20    56 1   
    60    21    57 1   
    61    21    58 1   
    62    22    59 1   
    63    23    60 1   
    64    23    61 1   
    65    24    62 1   
    66    24    63 1   
    67    25    64 1   
    68    27    65 1   
    69    27    66 1   
    70    27    67 1   
    71    28    68 1   
    72    28    69 1   
    73    29    70 1   
    74    30    71 1   
    75    30    72 1   
    76    30    73 1   
    77    31    74 1   
    78    31    75 1   
    79    32    76 1   
    80    32    77 1   
    81    33    78 1   
    82    33    79 1   
    83    35    80 1   
    84    36    81 1   
    85    36    82 1   
    86    36    83 1   
    87    37    84 1   
    88    37    85 1   
    89    37    86 1   
@<TRIPOS>SUBSTRUCTURE
     1 3AJ         1 TEMP              0 ****  ****    0 ROOT
