@<TRIPOS>MOLECULE
3AJ
   86    89     1     0     0
SMALL
bcc


@<TRIPOS>ATOM
      1 N32         -1.1980     2.2040    -0.7150 n1         1 3AJ      -0.385800
      2 C29         -0.6800     1.2460    -0.3930 c1         1 3AJ       0.247700
      3 C28          0.0000     0.0000     0.0000 cx         1 3AJ      -0.022900
      4 C31          1.5300     0.0000     0.0000 cx         1 3AJ      -0.057400
      5 C30          0.7660     0.0000     1.3250 cx         1 3AJ      -0.057400
      6 C27         -0.7070    -1.2940    -0.4080 c3         1 3AJ       0.247400
      7 O25         -2.1220    -1.1040    -0.3470 os         1 3AJ      -0.380600
      8 C19         -2.8800    -2.2590    -0.7120 c3         1 3AJ       0.167100
      9 C18         -4.2040    -2.2600     0.0530 c3         1 3AJ       0.188100
     10 O24         -3.9450    -2.1320     1.4520 oh         1 3AJ      -0.583800
     11 C17         -4.9540    -3.5700    -0.2100 c3         1 3AJ       0.010800
     12 C20         -3.1510    -2.2360    -2.2200 c3         1 3AJ       0.218300
     13 O23         -3.8470    -1.0380    -2.5650 oh         1 3AJ      -0.562800
     14 C21         -4.0010    -3.4410    -2.5710 ce         1 3AJ      -0.105200
     15 C22         -3.7100    -4.2220    -3.6100 c2         1 3AJ      -0.161000
     16 C16         -5.1680    -3.7070    -1.7040 ce         1 3AJ      -0.087200
     17 C15         -6.3650    -4.0550    -2.2180 cf         1 3AJ      -0.092000
     18 C14         -6.5330    -4.1770    -3.6680 cf         1 3AJ      -0.165000
     19 C4          -7.7160    -4.5210    -4.1760 c2         1 3AJ      -0.092400
     20 C3          -8.9310    -4.7920    -3.3010 c3         1 3AJ       0.015800
     21 C2         -10.1420    -4.0040    -3.7980 c3         1 3AJ      -0.031400
     22 C5          -7.9470    -4.6620    -5.6510 c3         1 3AJ      -0.006500
     23 C7          -6.8330    -4.1580    -6.5730 c3         1 3AJ      -0.029400
     24 C8          -7.5900    -3.8680    -7.8990 c3         1 3AJ      -0.029400
     25 C9          -9.0690    -3.6150    -7.5100 c3         1 3AJ      -0.030700
     26 C6          -9.0930    -3.6670    -5.9900 c3         1 3AJ      -0.059000
     27 C10         -8.7430    -2.2860    -5.4320 c3         1 3AJ      -0.043100
     28 C1         -10.3430    -4.1660    -5.3140 c3         1 3AJ      -0.022400
     29 C11         -9.5210    -2.2390    -8.0030 c3         1 3AJ      -0.059700
     30 C26        -10.9720    -1.9950    -7.5780 c3         1 3AJ      -0.026100
     31 C12         -9.4220    -2.1860    -9.5300 c3         1 3AJ      -0.034400
     32 C13         -9.7540    -0.7730   -10.0130 c3         1 3AJ      -0.044400
     33 C33         -9.6550    -0.7200   -11.5390 c3         1 3AJ      -0.022400
     34 C34         -9.9860     0.6930   -12.0240 c3         1 3AJ       0.163800
     35 O37        -11.3150     1.0350   -11.6200 oh         1 3AJ      -0.587800
     36 C36         -8.9970     1.6870   -11.4130 c3         1 3AJ      -0.034100
     37 C35         -9.8860     0.7450   -13.5490 c3         1 3AJ      -0.034100
     38 H1           1.9980    -0.9390    -0.2700 hc         1 3AJ       0.053950
     39 H2           1.9980     0.9390    -0.2700 hc         1 3AJ       0.053950
     40 H3           0.7660    -0.9390     1.8640 hc         1 3AJ       0.053950
     41 H4           0.7660     0.9390     1.8640 hc         1 3AJ       0.053950
     42 H5          -0.4210    -1.5590    -1.4190 h1         1 3AJ      -0.001800
     43 H6          -0.4200    -2.0900     0.2690 h1         1 3AJ      -0.001800
     44 H7          -2.3220    -3.1540    -0.4620 h1         1 3AJ       0.021700
     45 H8          -4.8110    -1.4270    -0.2820 h1         1 3AJ       0.031700
     46 H9          -4.6000    -1.5780     1.8430 ho         1 3AJ       0.393000
     47 H10         -4.3660    -4.4050     0.1510 hc         1 3AJ       0.026200
     48 H11         -5.9130    -3.5480     0.2940 hc         1 3AJ       0.026200
     49 H12         -2.2120    -2.2850    -2.7580 h1         1 3AJ       0.003700
     50 H13         -3.5470    -0.7310    -3.4050 ho         1 3AJ       0.390000
     51 H14         -4.3350    -5.0770    -3.8380 ha         1 3AJ       0.097000
     52 H15         -2.8470    -4.0020    -4.2280 ha         1 3AJ       0.097000
     53 H16         -7.2030    -4.2440    -1.5580 ha         1 3AJ       0.116000
     54 H17         -5.6940    -3.9930    -4.3270 ha         1 3AJ       0.137000
     55 H18         -9.1600    -5.8510    -3.3290 hc         1 3AJ       0.022200
     56 H19         -8.7080    -4.4970    -2.2830 hc         1 3AJ       0.022200
     57 H20        -11.0270    -4.3600    -3.2850 hc         1 3AJ       0.018700
     58 H21         -9.9950    -2.9550    -3.5720 hc         1 3AJ       0.018700
     59 H22         -8.2310    -5.6760    -5.9050 hc         1 3AJ       0.043700
     60 H23         -6.0830    -4.9260    -6.7210 hc         1 3AJ       0.021200
     61 H24         -6.3910    -3.2510    -6.1780 hc         1 3AJ       0.021200
     62 H25         -7.1760    -2.9870    -8.3760 hc         1 3AJ       0.018200
     63 H26         -7.5210    -4.7230    -8.5600 hc         1 3AJ       0.018200
     64 H27         -9.7010    -4.3930    -7.9200 hc         1 3AJ       0.033700
     65 H28         -9.6380    -1.6790    -5.3840 hc         1 3AJ       0.023367
     66 H29         -8.3260    -2.3940    -4.4380 hc         1 3AJ       0.023367
     67 H30         -8.0170    -1.8090    -6.0780 hc         1 3AJ       0.023367
     68 H31        -10.4990    -5.2110    -5.5540 hc         1 3AJ       0.023700
     69 H32        -11.1940    -3.5770    -5.6350 hc         1 3AJ       0.023700
     70 H33         -8.8860    -1.4740    -7.5740 hc         1 3AJ       0.045700
     71 H34        -11.5020    -1.4890    -8.3760 hc         1 3AJ       0.014033
     72 H35        -11.4520    -2.9440    -7.3710 hc         1 3AJ       0.014033
     73 H36        -10.9880    -1.3800    -6.6860 hc         1 3AJ       0.014033
     74 H37        -10.1240    -2.8890    -9.9620 hc         1 3AJ       0.017700
     75 H38         -8.4160    -2.4450    -9.8350 hc         1 3AJ       0.017700
     76 H39        -10.7600    -0.5130    -9.7070 hc         1 3AJ       0.029700
     77 H40         -9.0520    -0.0690    -9.5810 hc         1 3AJ       0.029700
     78 H41        -10.3560    -1.4240   -11.9710 hc         1 3AJ       0.021200
     79 H42         -8.6480    -0.9790   -11.8450 hc         1 3AJ       0.021200
     80 H43        -11.6130     1.7770   -12.1190 ho         1 3AJ       0.391000
     81 H44         -9.3200     1.9510   -10.4130 hc         1 3AJ       0.011867
     82 H45         -8.0130     1.2360   -11.3670 hc         1 3AJ       0.011867
     83 H46         -8.9560     2.5790   -12.0270 hc         1 3AJ       0.011867
     84 H47        -10.6000     0.0550   -13.9820 hc         1 3AJ       0.011867
     85 H48         -8.8850     0.4690   -13.8550 hc         1 3AJ       0.011867
     86 H49        -10.1040     1.7500   -13.8910 hc         1 3AJ       0.011867
@<TRIPOS>BOND
     1     1     2 3   
     2     2     3 1   
     3     3     4 1   
     4     3     5 1   
     5     3     6 1   
     6     4     5 1   
     7     4    38 1   
     8     4    39 1   
     9     5    40 1   
    10     5    41 1   
    11     6     7 1   
    12     6    42 1   
    13     6    43 1   
    14     7     8 1   
    15     8     9 1   
    16     8    12 1   
    17     8    44 1   
    18     9    10 1   
    19     9    11 1   
    20     9    45 1   
    21    10    46 1   
    22    11    16 1   
    23    11    47 1   
    24    11    48 1   
    25    12    13 1   
    26    12    14 1   
    27    12    49 1   
    28    13    50 1   
    29    14    15 2   
    30    14    16 1   
    31    15    51 1   
    32    15    52 1   
    33    16    17 2   
    34    17    18 1   
    35    17    53 1   
    36    18    19 2   
    37    18    54 1   
    38    19    20 1   
    39    19    22 1   
    40    20    21 1   
    41    20    55 1   
    42    20    56 1   
    43    21    28 1   
    44    21    57 1   
    45    21    58 1   
    46    22    23 1   
    47    22    26 1   
    48    22    59 1   
    49    23    24 1   
    50    23    60 1   
    51    23    61 1   
    52    24    25 1   
    53    24    62 1   
    54    24    63 1   
    55    25    26 1   
    56    25    29 1   
    57    25    64 1   
    58    26    27 1   
    59    26    28 1   
    60    27    65 1   
    61    27    66 1   
    62    27    67 1   
    63    28    68 1   
    64    28    69 1   
    65    29    30 1   
    66    29    31 1   
    67    29    70 1   
    68    30    71 1   
    69    30    72 1   
    70    30    73 1   
    71    31    32 1   
    72    31    74 1   
    73    31    75 1   
    74    32    33 1   
    75    32    76 1   
    76    32    77 1   
    77    33    34 1   
    78    33    78 1   
    79    33    79 1   
    80    34    35 1   
    81    34    36 1   
    82    34    37 1   
    83    35    80 1   
    84    36    81 1   
    85    36    82 1   
    86    36    83 1   
    87    37    84 1   
    88    37    85 1   
    89    37    86 1   
@<TRIPOS>SUBSTRUCTURE
     1 3AJ         1 TEMP              0 ****  ****    0 ROOT
