@<TRIPOS>MOLECULE
molecule
   29    31     1     0     0
SMALL
bcc


@<TRIPOS>ATOM
      1 O11          0.0000     0.0000     0.0000 o          1 3AK      -0.556500
      2 C8           1.2130     0.0000     0.0000 c          1 3AK       0.618500
      3 C9           2.0990     0.0000     1.2110 c          1 3AK       0.513700
      4 O10          1.7610    -0.0010     2.3760 o          1 3AK      -0.444100
      5 C1           3.4720     0.0000     0.6740 ca         1 3AK      -0.252600
      6 N7           2.0090    -0.0050    -1.0830 n          1 3AK      -0.368000
      7 C6           3.3550     0.0010    -0.7270 ca         1 3AK       0.101600
      8 C5           4.5100     0.0020    -1.4980 ca         1 3AK      -0.174000
      9 C4           5.7520     0.0020    -0.8920 ca         1 3AK      -0.062000
     10 C3           5.8650     0.0020     0.4890 ca         1 3AK      -0.174000
     11 C2           4.7300     0.0010     1.2750 ca         1 3AK      -0.019000
     12 C12          1.5210    -0.0130    -2.4640 c3         1 3AK       0.159300
     13 C13          1.3550     1.4060    -2.9450 ca         1 3AK      -0.126300
     14 C18          2.4060     2.0550    -3.5650 ca         1 3AK      -0.107500
     15 C17          2.2540     3.3550    -4.0060 ca         1 3AK      -0.129000
     16 C16          1.0480     4.0080    -3.8280 ca         1 3AK      -0.117000
     17 C15         -0.0050     3.3600    -3.2090 ca         1 3AK      -0.129000
     18 C14          0.1470     2.0570    -2.7730 ca         1 3AK      -0.107500
     19 H3           4.4370     0.0020    -2.5790 ha         1 3AK       0.136000
     20 H4           6.6470     0.0020    -1.5030 ha         1 3AK       0.138000
     21 H5           6.8440     0.0020     0.9520 ha         1 3AK       0.141000
     22 H6           4.8170     0.0010     2.3550 ha         1 3AK       0.148000
     23 H7           0.5670    -0.5230    -2.5070 h1         1 3AK       0.070700
     24 H8           2.2350    -0.5270    -3.0960 h1         1 3AK       0.070700
     25 H9           3.3510     1.5430    -3.7040 ha         1 3AK       0.136000
     26 H10          3.0790     3.8630    -4.4900 ha         1 3AK       0.133000
     27 H11          0.9280     5.0290    -4.1720 ha         1 3AK       0.132000
     28 H12         -0.9500     3.8700    -3.0720 ha         1 3AK       0.133000
     29 H13         -0.6780     1.5490    -2.2880 ha         1 3AK       0.136000
@<TRIPOS>BOND
     1    16    15 ar
     2    16    17 ar
     3    15    14 ar
     4    17    18 ar
     5    14    13 ar
     6     1     2 2
     7    18    13 ar
     8    13    12 1
     9     4     3 2
    10     2     3 1
    11     2     6 1
    12     3     5 1
    13    12     6 1
    14     6     7 1
    15     5     7 ar
    16     5    11 ar
    17     7     8 ar
    18    11    10 ar
    19     8     9 ar
    20    10     9 ar
    21     8    19 1
    22     9    20 1
    23    10    21 1
    24    11    22 1
    25    12    23 1
    26    12    24 1
    27    14    25 1
    28    15    26 1
    29    16    27 1
    30    17    28 1
    31    18    29 1
@<TRIPOS>SUBSTRUCTURE
     1 3AK         1 TEMP              0 ****  ****    0 ROOT
