@<TRIPOS>MOLECULE
3AL
   18    18     1     0     0
SMALL
bcc


@<TRIPOS>ATOM
      1 C4           0.0000     0.0000     0.0000 c3         1 3AL      -0.039900
      2 C5           1.5160     0.0000     0.0000 c          1 3AL       0.591500
      3 O5           2.2490     0.0000    -0.9660 o          1 3AL      -0.570500
      4 N7           1.8800     0.0000     1.2970 ns         1 3AL      -0.139500
      5 C8           0.8160     0.0000     2.1090 c          1 3AL       0.600500
      6 O8           0.8910     0.0010     3.3220 o          1 3AL      -0.616500
      7 N9          -0.3460     0.0010     1.4310 ns         1 3AL      -0.224900
      8 N3          -0.5150    -1.2050    -0.6550 ns         1 3AL      -0.114900
      9 C2          -1.5250    -1.1090    -1.5430 c          1 3AL       0.303100
     10 N1          -1.9990    -2.2180    -2.1460 nz         1 3AL       0.220600
     11 O2          -2.0080    -0.0240    -1.8000 o          1 3AL      -0.514100
     12 H4          -0.3780     0.8940    -0.4810 h2         1 3AL       0.110700
     13 HN7          2.8290    -0.0000     1.6150 hn         1 3AL       0.230500
     14 HN9         -1.2670     0.0010     1.8240 hn         1 3AL       0.234500
     15 HN3         -0.1140    -2.0980    -0.4480 hn         1 3AL       0.186500
     16 HN11        -2.1690    -2.9250    -1.4580 hn         1 3AL       0.247467
     17 HN12        -2.8530    -2.0010    -2.6190 hn         1 3AL       0.247467
     18 H13         -1.3260    -2.5520    -2.8070 hn         1 3AL       0.247467
@<TRIPOS>BOND
     1     1     2 1   
     2     1     7 1   
     3     1     8 1   
     4     1    12 1   
     5     2     3 2   
     6     2     4 1   
     7     4     5 1   
     8     4    13 1   
     9     5     6 2   
    10     5     7 1   
    11     7    14 1   
    12     8     9 1   
    13     8    15 1   
    14     9    10 1   
    15     9    11 2   
    16    10    16 1   
    17    10    17 1   
    18    10    18 1   
@<TRIPOS>SUBSTRUCTURE
     1 3AL         1 TEMP              0 ****  ****    0 ROOT
