@<TRIPOS>MOLECULE
molecule
   35    37     1     0     0
SMALL
bcc


@<TRIPOS>ATOM
      1 O1P          0.0000     0.0000     0.0000 o          1 3AM      -0.899167
      2 P            1.4800     0.0000     0.0000 p5         1 3AM       1.158900
      3 O2P          2.0170     0.0000     1.5180 o          1 3AM      -0.899167
      4 O3P          2.0180    -1.3150    -0.7590 o          1 3AM      -0.899167
      5 O2'          3.9620     2.6240     0.3680 oh         1 3AM      -0.541800
      6 C2'          2.8680     3.4730     0.0160 c3         1 3AM       0.096100
      7 C3'          1.6290     2.6390    -0.3910 c3         1 3AM       0.197100
      8 O3'          2.0180     1.3130    -0.7590 os         1 3AM      -0.529200
      9 C1'          3.1740     4.2550    -1.2870 c3         1 3AM       0.231800
     10 O4'          1.8640     4.5550    -1.8160 os         1 3AM      -0.449600
     11 C4'          1.0500     3.3880    -1.6060 c3         1 3AM       0.115100
     12 C5'         -0.3940     3.8070    -1.3200 c3         1 3AM       0.132400
     13 O5'         -0.9590     4.3970    -2.4920 oh         1 3AM      -0.622800
     14 N9           3.9040     5.4900    -0.9890 na         1 3AM      -0.222000
     15 C8           3.3590     6.7280    -0.8170 cc         1 3AM       0.442700
     16 N7           4.2970     7.5950    -0.5650 nd         1 3AM      -0.638100
     17 C5           5.4990     6.9710    -0.5580 ca         1 3AM      -0.215200
     18 C6           6.8260     7.3830    -0.3510 ca         1 3AM       0.766200
     19 N6           7.1210     8.7080    -0.0780 nv         1 3AM      -1.005500
     20 C4           5.2610     5.6110    -0.8250 ca         1 3AM       0.480800
     21 N3           6.2900     4.7710    -0.8670 nb         1 3AM      -0.736000
     22 C2           7.5160     5.2030    -0.6610 ca         1 3AM       0.713900
     23 N1           7.7910     6.4720    -0.4200 nb         1 3AM      -0.858000
     24 HO2'         4.0960     2.6560     1.3010 ho         1 3AM       0.405000
     25 H3'          0.9080     2.6180     0.4170 h1         1 3AM       0.060700
     26 H1'          3.7290     3.6350    -1.9800 h2         1 3AM       0.115700
     27 H4'          1.0890     2.7510    -2.4820 h1         1 3AM       0.093700
     28 H5'         -0.4070     4.5270    -0.5110 h1         1 3AM       0.043200
     29 H5'A        -0.9730     2.9360    -1.0390 h1         1 3AM       0.043200
     30 HO5'        -1.8960     4.4520    -2.3950 ho         1 3AM       0.380000
     31 H8           2.3030     6.9570    -0.8820 h5         1 3AM       0.088800
     32 HN6          8.0730     8.9970     0.0250 hn         1 3AM       0.436300
     33 HN6A         6.3810     9.3740     0.0270 hn         1 3AM       0.436300
     34 H2           8.3690     4.5380    -0.7210 h5         1 3AM       0.052100
     35 H2'          2.6240     4.1540     0.8220 h1         1 3AM       0.022700
@<TRIPOS>BOND
     1     1     2 1
     2     2     3 1
     3     2     4 1
     4     2     8 1
     5     5     6 1
     6     6     7 1
     7     6     9 1
     8     7     8 1
     9     7    11 1
    10     9    10 1
    11     9    14 1
    12    10    11 1
    13    11    12 1
    14    12    13 1
    15    14    15 1
    16    14    20 1
    17    15    16 2
    18    16    17 1
    19    17    18 ar
    20    17    20 ar
    21    18    19 1
    22    18    23 ar
    23    20    21 ar
    24    21    22 ar
    25    22    23 ar
    26     5    24 1
    27     6    35 1
    28     7    25 1
    29     9    26 1
    30    11    27 1
    31    12    28 1
    32    12    29 1
    33    13    30 1
    34    15    31 1
    35    19    32 1
    36    19    33 1
    37    22    34 1
@<TRIPOS>SUBSTRUCTURE
     1 3AM         1 TEMP              0 ****  ****    0 ROOT
