@<TRIPOS>MOLECULE
3AO
   19    19     1     0     0
SMALL
bcc


@<TRIPOS>ATOM
      1 CAA          0.0000     0.0000     0.0000 c3         1 3AO      -0.092100
      2 OAC          2.1130    -0.0000    -1.0500 o          1 3AO      -0.561100
      3 CAD          2.2400     0.0000     3.6810 ca         1 3AO      -0.112000
      4 CAE          3.6220     0.0000     3.6830 ca         1 3AO      -0.084000
      5 CAF          1.5470     0.0000     2.4880 ca         1 3AO      -0.070000
      6 CAG          3.6410    -0.0000     1.2780 ca         1 3AO      -0.049000
      7 CAH          1.5070     0.0000     0.0000 c          1 3AO       0.625700
      8 CAI          4.3260    -0.0000     2.4830 ca         1 3AO       0.014600
      9 CAJ          2.2430    -0.0000     1.2750 ca         1 3AO      -0.185600
     10 HAA         -0.3610    -0.8850     0.5100 hc         1 3AO       0.025700
     11 HAAA        -0.3610     0.0000    -1.0210 hc         1 3AO       0.025700
     12 HAAB        -0.3610     0.8840     0.5110 hc         1 3AO       0.025700
     13 HNAB         6.2230     0.8670     2.4910 hn         1 3AO       0.274800
     14 HNAA         6.2230    -0.8670     2.4910 hn         1 3AO       0.274800
     15 HAD          1.6990     0.0000     4.6190 ha         1 3AO       0.105000
     16 HAE          4.1600    -0.0000     4.6240 ha         1 3AO       0.107000
     17 HAF          0.4640     0.0000     2.4910 ha         1 3AO       0.107000
     18 HAG          4.1860    -0.0000     0.3420 ha         1 3AO       0.128000
     19 NAB          5.7230    -0.0000     2.4920 nv         1 3AO      -0.559200
@<TRIPOS>BOND
     1     1     7 1   
     2     1    10 1   
     3     1    11 1   
     4     1    12 1   
     5     2     7 2   
     6     3     4 ar  
     7     3     5 ar  
     8     3    15 1   
     9     4     8 ar  
    10     4    16 1   
    11     5     9 ar  
    12     5    17 1   
    13     6     8 ar  
    14     6     9 ar  
    15     6    18 1   
    16     7     9 1   
    17     8    19 1   
    18    13    19 1   
    19    14    19 1   
@<TRIPOS>SUBSTRUCTURE
     1 3AO         1 TEMP              0 ****  ****    0 ROOT
