@<TRIPOS>MOLECULE
3AP
   14    14     1     0     0
SMALL
bcc


@<TRIPOS>ATOM
      1 N1           0.0000     0.0000     0.0000 na         1 3AP       0.656900
      2 C2           1.3190     0.0000     0.0000 ca         1 3AP      -0.299300
      3 C3           2.0270     0.0000     1.1940 ca         1 3AP       0.109600
      4 C4           1.3240     0.0100     2.3970 ca         1 3AP      -0.035000
      5 C5          -0.0600     0.0160     2.3490 ca         1 3AP      -0.026000
      6 C6          -0.6940     0.0100     1.1200 ca         1 3AP      -0.273300
      7 N3           3.4240    -0.0050     1.1900 nv         1 3AP      -0.542200
      8 HN1         -0.4870    -0.0020    -0.8740 hn         1 3AP       0.127700
      9 H2           1.8550    -0.0080    -0.9410 h4         1 3AP       0.178000
     10 H4           1.8470     0.0130     3.3460 ha         1 3AP       0.155000
     11 H5          -0.6400     0.0240     3.2650 ha         1 3AP       0.154000
     12 H6          -1.7770     0.0120     1.0770 h4         1 3AP       0.174000
     13 HN31         3.9210    -0.8740     1.1950 hn         1 3AP       0.310800
     14 HN32         3.9280     0.8600     1.1870 hn         1 3AP       0.310800
@<TRIPOS>BOND
     1     1     2 1   
     2     1     6 2   
     3     1     8 1   
     4     2     3 ar  
     5     2     9 1   
     6     3     4 ar  
     7     3     7 1   
     8     4     5 ar  
     9     4    10 1   
    10     5     6 ar  
    11     5    11 1   
    12     6    12 1   
    13     7    13 1   
    14     7    14 1   
@<TRIPOS>SUBSTRUCTURE
     1 3AP         1 TEMP              0 ****  ****    0 ROOT
