@<TRIPOS>MOLECULE
molecule
   17    17     1     0     0
SMALL
bcc


@<TRIPOS>ATOM
      1 C01          0.0000     0.0000     0.0000 ca         1 3AQ      -0.101000
      2 C02          1.3750    -0.0000     2.4020 ca         1 3AQ      -0.150500
      3 C03         -0.0060    -0.0050     2.3960 ca         1 3AQ      -0.101000
      4 C04          1.3810     0.0000     0.0000 ca         1 3AQ      -0.150500
      5 C06         -2.6960    -1.3810     1.1880 c1         1 3AQ       0.212700
      6 N           -3.0910    -2.4470     1.1700 n1         1 3AQ      -0.366800
      7 C07          2.0740     0.0000     1.2030 ca         1 3AQ       0.113100
      8 C           -0.6930    -0.0010     1.1960 ca         1 3AQ      -0.106300
      9 H1          -0.5420    -0.0000    -0.9380 ha         1 3AQ       0.136500
     10 H2           1.9130    -0.0040     3.3430 ha         1 3AQ       0.144000
     11 H3          -0.5520    -0.0060     3.3320 ha         1 3AQ       0.136500
     12 H4           1.9230     0.0010    -0.9380 ha         1 3AQ       0.144000
     13 H5          -2.5610     0.5140     2.0780 hc         1 3AQ       0.076200
     14 H6          -2.5570     0.5180     0.3090 hc         1 3AQ       0.076200
     15 H7           3.7460     0.8890     1.1930 ho         1 3AQ       0.421000
     16 C05         -2.2000     0.0040     1.1930 c3         1 3AQ       0.036000
     17 O            3.4320     0.0000     1.2060 oh         1 3AQ      -0.520100
@<TRIPOS>BOND
     1    17     7 1   
     2     7     2 ar  
     3     7     4 ar  
     4     2     3 ar  
     5     4     1 ar  
     6     3     8 ar  
     7     1     8 ar  
     8     8    16 1   
     9    16     5 1   
    10     5     6 3   
    11     1     9 1   
    12     2    10 1   
    13     3    11 1   
    14     4    12 1   
    15    16    13 1   
    16    16    14 1   
    17    17    15 1   
@<TRIPOS>SUBSTRUCTURE
     1 3AQ         1 TEMP              0 ****  ****    0 ROOT
