@<TRIPOS>MOLECULE
molecule
   46    49     1     0     0
SMALL
bcc


@<TRIPOS>ATOM
      1 C1           0.0000     0.0000     0.0000 ca         1 3AS       0.077100
      2 C2           1.3870     0.0000     0.0000 ca         1 3AS      -0.099000
      3 C3           2.0720     0.0000     1.1980 ca         1 3AS      -0.094300
      4 C4           1.3770    -0.0010     2.4020 ca         1 3AS       0.135100
      5 O5           2.0880    -0.0010     3.5610 os         1 3AS      -0.327900
      6 C6           1.4260    -0.4900     4.7270 c3         1 3AS       0.209400
      7 C8           2.2940    -0.2510     5.9360 ca         1 3AS      -0.101300
      8 C9           2.3830    -1.2160     6.9230 ca         1 3AS      -0.097000
      9 C10          3.1780    -0.9990     8.0320 ca         1 3AS      -0.154000
     10 C11          3.8870     0.1870     8.1550 ca         1 3AS       0.114100
     11 O12          4.6690     0.4030     9.2440 oh         1 3AS      -0.521100
     12 C13          3.7960     1.1530     7.1630 ca         1 3AS      -0.154000
     13 C14          3.0050     0.9300     6.0530 ca         1 3AS      -0.097000
     14 C15          0.1010     0.2410     4.9000 c3         1 3AS      -0.101700
     15 C17         -0.8070    -0.0020     3.6800 c3         1 3AS      -0.014400
     16 C19         -0.0050    -0.0010     2.4060 ca         1 3AS      -0.144300
     17 C20         -0.6920    -0.0010     1.1990 ca         1 3AS      -0.121000
     18 C21         -1.7480     1.2230     3.6580 c3         1 3AS      -0.121400
     19 C22         -1.0260     2.3470     4.4220 c3         1 3AS       0.396600
     20 F23         -0.8180     3.4430     3.5770 f          1 3AS      -0.234800
     21 F24         -1.7830     2.7360     5.5320 f          1 3AS      -0.234800
     22 C25          0.3290     1.7680     4.8800 c3         1 3AS      -0.117400
     23 C26          3.5790     0.0010     1.2000 c3         1 3AS       0.193700
     24 O27          4.0570     0.0010    -0.1450 os         1 3AS      -0.436600
     25 C28          5.4830     0.0020    -0.2560 c3         1 3AS       0.131700
     26 O29         -0.6810     0.0050    -1.1770 oh         1 3AS      -0.517100
     27 H2           1.9310     0.0010    -0.9370 ha         1 3AS       0.168000
     28 H6           1.2380    -1.5510     4.6150 h1         1 3AS       0.057700
     29 H9           1.8290    -2.1420     6.8270 ha         1 3AS       0.140500
     30 H10          3.2480    -1.7550     8.8050 ha         1 3AS       0.144000
     31 H12          5.5400     0.0830     9.0740 ho         1 3AS       0.422000
     32 H13          4.3510     2.0780     7.2550 ha         1 3AS       0.144000
     33 H14          2.9340     1.6830     5.2780 ha         1 3AS       0.140500
     34 H15         -0.3930    -0.0630     5.8150 hc         1 3AS       0.080700
     35 H17         -1.3690    -0.9220     3.7890 hc         1 3AS       0.073700
     36 H20         -1.7760    -0.0010     1.1960 ha         1 3AS       0.143000
     37 H211        -1.9310     1.5300     2.6350 hc         1 3AS       0.077700
     38 H212        -2.6810     0.9820     4.1510 hc         1 3AS       0.077700
     39 H251         1.0970     2.0140     4.1570 hc         1 3AS       0.084700
     40 H252         0.5570     2.1170     5.8800 hc         1 3AS       0.084700
     41 H261         3.9400    -0.8840     1.7120 h1         1 3AS       0.041200
     42 H262         3.9390     0.8850     1.7120 h1         1 3AS       0.041200
     43 H281         5.7640     0.0010    -1.3020 h1         1 3AS       0.031367
     44 H282         5.8830    -0.8820     0.2260 h1         1 3AS       0.031367
     45 H283         5.8810     0.8870     0.2240 h1         1 3AS       0.031367
     46 H29         -0.7890    -0.8810    -1.4820 ho         1 3AS       0.416000
@<TRIPOS>BOND
     1    18    19 1
     2    18    15 1
     3    21    19 1
     4    19    20 1
     5    19    22 1
     6    26     1 1
     7    17     1 ar
     8    17    16 ar
     9    15    16 1
    10    15    14 1
    11     1     2 ar
    12    16     4 ar
    13    14    22 1
    14    14     6 1
    15     2     3 ar
    16     4     3 ar
    17     4     5 1
    18     6     5 1
    19     6     7 1
    20     3    23 1
    21    13     7 ar
    22    13    12 ar
    23     7     8 ar
    24    12    10 ar
    25    23    24 1
    26     8     9 ar
    27    24    25 1
    28    10     9 ar
    29    10    11 1
    30     2    27 1
    31     6    28 1
    32     8    29 1
    33     9    30 1
    34    11    31 1
    35    12    32 1
    36    13    33 1
    37    14    34 1
    38    15    35 1
    39    17    36 1
    40    18    37 1
    41    18    38 1
    42    22    39 1
    43    22    40 1
    44    23    41 1
    45    23    42 1
    46    25    43 1
    47    25    44 1
    48    25    45 1
    49    26    46 1
@<TRIPOS>SUBSTRUCTURE
     1 3AS         1 TEMP              0 ****  ****    0 ROOT
