@<TRIPOS>MOLECULE
3AS
   46    49     1     0     0
SMALL
bcc


@<TRIPOS>ATOM
      1 C1         -0.0020   -0.1780   -0.0540 ca        1 3AS      0.103100
      2 C2          1.3980   -0.0870   -0.0510 ca        1 3AS     -0.162000
      3 C3          2.0770    0.0300    1.1590 ca        1 3AS     -0.059300
      4 C4          1.3360    0.0680    2.3580 ca        1 3AS      0.085100
      5 O5          2.0680    0.2110    3.5280 os        1 3AS     -0.327900
      6 C6          1.4140   -0.3790    4.6700 c3        1 3AS      0.202400
      7 C8          2.3070   -0.1730    5.8550 ca        1 3AS     -0.129300
      8 C9          2.2080   -1.0630    6.9340 ca        1 3AS     -0.076000
      9 C10         3.0140   -0.9100    8.0550 ca        1 3AS     -0.186500
     10 C11         3.9390    0.1480    8.0910 ca        1 3AS      0.131100
     11 O12         4.7100    0.2470    9.2260 oh        1 3AS     -0.495100
     12 C13         4.0520    1.0400    7.0170 ca        1 3AS     -0.186500
     13 C14         3.2320    0.8740    5.9030 ca        1 3AS     -0.076000
     14 C15         0.0220    0.2150    4.8770 c3        1 3AS     -0.084700
     15 C17        -0.8540    0.0630    3.6230 c3        1 3AS     -0.010400
     16 C19        -0.0660    0.0010    2.3560 ca        1 3AS     -0.101300
     17 C20        -0.7370   -0.1340    1.1370 ca        1 3AS     -0.133000
     18 C21        -1.8170    1.2500    3.6300 c3        1 3AS     -0.120400
     19 C22        -1.2480    2.3110    4.6160 c3        1 3AS      0.406600
     20 F23        -1.0120    3.5270    4.0060 f         1 3AS     -0.241800
     21 F24        -2.1690    2.6690    5.5820 f         1 3AS     -0.241800
     22 C25         0.0410    1.6950    5.2270 c3        1 3AS     -0.118400
     23 C26         3.5630    0.1370    1.2290 c3        1 3AS      0.177700
     24 O27         4.1150   -0.1910   -0.0480 os        1 3AS     -0.427600
     25 C28         5.5310   -0.1380   -0.0460 c3        1 3AS      0.118700
     26 O29        -0.7300   -0.3110   -1.2170 oh        1 3AS     -0.499100
     27 H2          1.9670   -0.1170   -0.9930 ha        1 3AS      0.159000
     28 H6          1.3030   -1.4840    4.4670 h1        1 3AS      0.059700
     29 H9          1.4850   -1.8920    6.8940 ha        1 3AS      0.143000
     30 H10         2.9440   -1.6000    8.9080 ha        1 3AS      0.145000
     31 H12         5.2970    1.0100    9.1220 ho        1 3AS      0.421000
     32 H13         4.7800    1.8630    7.0520 ha        1 3AS      0.145000
     33 H14         3.3150    1.5660    5.0500 ha        1 3AS      0.143000
     34 H15        -0.4600   -0.3530    5.7200 hc        1 3AS      0.068700
     35 H17        -1.4440   -0.8930    3.7020 hc        1 3AS      0.069700
     36 H20        -1.8330   -0.2030    1.1030 ha        1 3AS      0.152000
     37 H211       -2.8290    0.9310    3.9840 hc        1 3AS      0.079700
     38 H212       -1.9240    1.7020    2.6130 hc        1 3AS      0.079700
     39 H251        0.9370    2.1950    4.7790 hc        1 3AS      0.082200
     40 H252        0.0580    1.8550    6.3320 hc        1 3AS      0.082200
     41 H261        3.8570    1.1870    1.5050 h1        1 3AS      0.048700
     42 H262        3.9640   -0.5690    2.0070 h1        1 3AS      0.048700
     43 H281        5.8210   -0.4130   -1.0910 h1        1 3AS      0.034700
     44 H282        5.9530   -0.8710    0.6840 h1        1 3AS      0.034700
     45 H283        5.8870    0.8930    0.2010 h1        1 3AS      0.034700
     46 H29        -0.1050   -0.3290   -1.9570 ho        1 3AS      0.421000
@<TRIPOS>BOND
     1    1    2 ar  
     2    1   17 ar  
     3    1   26 1   
     4    2    3 ar  
     5    2   27 1   
     6    3    4 ar  
     7    3   23 1   
     8    4    5 1   
     9    4   16 ar  
    10    5    6 1   
    11    6    7 1   
    12    6   14 1   
    13    6   28 1   
    14    7    8 ar  
    15    7   13 ar  
    16    8    9 ar  
    17    8   29 1   
    18    9   10 ar  
    19    9   30 1   
    20   10   11 1   
    21   10   12 ar  
    22   11   31 1   
    23   12   13 ar  
    24   12   32 1   
    25   13   33 1   
    26   14   15 1   
    27   14   22 1   
    28   14   34 1   
    29   15   16 1   
    30   15   18 1   
    31   15   35 1   
    32   16   17 ar  
    33   17   36 1   
    34   18   19 1   
    35   18   37 1   
    36   18   38 1   
    37   19   20 1   
    38   19   21 1   
    39   19   22 1   
    40   22   39 1   
    41   22   40 1   
    42   23   24 1   
    43   23   41 1   
    44   23   42 1   
    45   24   25 1   
    46   25   43 1   
    47   25   44 1   
    48   25   45 1   
    49   26   46 1   
@<TRIPOS>SUBSTRUCTURE
     1 3AS         1 TEMP              0 ****  ****    0 ROOT
