@<TRIPOS>MOLECULE
molecule
   42    44     1     0     0
SMALL
bcc


@<TRIPOS>ATOM
      1 PG           0.0000     0.0000     0.0000 p5         1 3AT       1.334900
      2 O1G          1.4800     0.0000     0.0000 o          1 3AT      -0.829833
      3 O2G         -0.5370     0.0000     1.5170 o          1 3AT      -0.829833
      4 O3G         -0.5360     1.3140    -0.7590 o          1 3AT      -0.829833
      5 PB          -0.1380    -2.8730    -0.7120 p5         1 3AT       1.509800
      6 O1B          1.3340    -3.0040    -0.6230 o          1 3AT      -0.869000
      7 O2B         -0.8160    -3.5640     0.5740 o          1 3AT      -0.869000
      8 O3B         -0.5370    -1.3140    -0.7590 os         1 3AT      -0.734800
      9 PA          -0.3420    -5.0140    -2.7520 p5         1 3AT       1.441800
     10 O1A          1.1060    -5.3000    -2.6510 o          1 3AT      -0.855500
     11 O2A         -1.1720    -6.1800    -2.0150 o          1 3AT      -0.855500
     12 O3A         -0.6600    -3.6010    -2.0510 os         1 3AT      -0.723800
     13 O5'         -0.7680    -4.9510    -4.3040 os         1 3AT      -0.587200
     14 C5'         -0.5160    -6.0150    -5.2240 c3         1 3AT       0.240400
     15 C4'         -1.0470    -5.6300    -6.6060 c3         1 3AT       0.136100
     16 O4'         -0.2950    -4.5250    -7.1500 os         1 3AT      -0.362600
     17 C3'         -0.7990    -6.7720    -7.6240 c3         1 3AT      -0.146400
     18 C2'         -0.7850    -6.0090    -8.9710 c3         1 3AT       0.089100
     19 O2'         -2.0600    -6.0990    -9.6100 oh         1 3AT      -0.597800
     20 C1'         -0.4810    -4.5510    -8.5760 c3         1 3AT       0.252800
     21 N9           0.7390    -4.0960    -9.2460 na         1 3AT      -0.257000
     22 C8           2.0020    -4.1270    -8.7320 cc         1 3AT       0.410700
     23 N7           2.8460    -3.6460    -9.5980 nd         1 3AT      -0.613100
     24 C5           2.1810    -3.2770   -10.7190 ca         1 3AT      -0.159200
     25 C6           2.5560    -2.7130   -11.9500 ca         1 3AT       0.628200
     26 N6           3.8810    -2.4120   -12.2160 nv         1 3AT      -1.061500
     27 N1           1.6110    -2.4750   -12.8530 nb         1 3AT      -0.784000
     28 C2           0.3450    -2.7600   -12.6070 ca         1 3AT       0.600900
     29 N3          -0.0530    -3.2880   -11.4700 nb         1 3AT      -0.803000
     30 C4           0.8230    -3.5670   -10.5090 ca         1 3AT       0.450800
     31 H5'1        -1.0160    -6.9140    -4.8830 h1         1 3AT       0.027700
     32 H5'2         0.5500    -6.1960    -5.2840 h1         1 3AT       0.027700
     33 H4'         -2.1020    -5.3850    -6.5620 h1         1 3AT       0.061700
     34 H3'1         0.1570    -7.2480    -7.4420 hc         1 3AT       0.053200
     35 H3'2        -1.6080    -7.4920    -7.5990 hc         1 3AT       0.053200
     36 H2'1        -0.0030    -6.3950    -9.6150 h1         1 3AT       0.039700
     37 HO2'        -2.0220    -6.7430   -10.2980 ho         1 3AT       0.384000
     38 H1'         -1.3150    -3.9160    -8.8480 h2         1 3AT       0.092700
     39 H8           2.2630    -4.4970    -7.7490 h5         1 3AT       0.101800
     40 HN61         4.2410    -1.5030   -12.0010 hn         1 3AT       0.408300
     41 HN62         4.4700    -3.0910   -12.6570 hn         1 3AT       0.408300
     42 H2          -0.3940    -2.5500   -13.3710 h5         1 3AT       0.016100
@<TRIPOS>BOND
     1     1     2 1
     2     1     3 1
     3     1     4 1
     4     1     8 1
     5     5     6 1
     6     5     7 1
     7     5     8 1
     8     5    12 1
     9     9    10 1
    10     9    11 1
    11     9    12 1
    12     9    13 1
    13    13    14 1
    14    14    15 1
    15    14    31 1
    16    14    32 1
    17    15    16 1
    18    15    17 1
    19    15    33 1
    20    16    20 1
    21    17    18 1
    22    17    34 1
    23    17    35 1
    24    18    19 1
    25    18    20 1
    26    18    36 1
    27    19    37 1
    28    20    21 1
    29    20    38 1
    30    21    22 1
    31    21    30 1
    32    22    23 2
    33    22    39 1
    34    23    24 1
    35    24    25 ar
    36    24    30 ar
    37    25    26 1
    38    25    27 ar
    39    26    40 1
    40    26    41 1
    41    27    28 ar
    42    28    29 ar
    43    28    42 1
    44    29    30 ar
@<TRIPOS>SUBSTRUCTURE
     1 3AT         1 TEMP              0 ****  ****    0 ROOT
