@<TRIPOS>MOLECULE
molecule
   20    21     1     0     0
SMALL
bcc


@<TRIPOS>ATOM
      1 C01          0.0000     0.0000     0.0000 c3         1 3AV      -0.046800
      2 C02          4.2850     0.0000     0.0000 ca         1 3AV       0.160100
      3 C03          3.5840     0.0000     1.1990 ca         1 3AV      -0.142000
      4 C04          6.3250    -0.0060    -1.1630 c          1 3AV       0.736800
      5 C05          4.3210    -0.0110    -2.4740 cc         1 3AV      -0.024200
      6 C06          2.1760    -0.0050    -1.2030 ca         1 3AV      -0.073000
      7 C07          5.6760    -0.0110    -2.4160 cd         1 3AV      -0.271200
      8 O01          5.6350    -0.0000    -0.0120 os         1 3AV      -0.305200
      9 C08          1.5070     0.0010    -0.0120 ca         1 3AV      -0.108300
     10 C09          3.5740    -0.0050    -1.2130 ca         1 3AV      -0.157800
     11 C            2.2050     0.0000     1.1870 ca         1 3AV      -0.081000
     12 H1          -0.3540     0.4000     0.9430 hc         1 3AV       0.046033
     13 H2          -0.3620    -1.0140    -0.1210 hc         1 3AV       0.046033
     14 H3          -0.3680     0.6140    -0.8130 hc         1 3AV       0.046033
     15 H4           4.1190    -0.0000     2.1410 ha         1 3AV       0.154000
     16 H5           3.8060    -0.0150    -3.4270 ha         1 3AV       0.146000
     17 H6           1.6270    -0.1070    -2.1320 ha         1 3AV       0.140000
     18 H7           6.2590    -0.0160    -3.3290 ha         1 3AV       0.170000
     19 H8           1.6610    -0.0010     2.1240 ha         1 3AV       0.142000
     20 O            7.5420    -0.0070    -1.1240 o          1 3AV      -0.577500
@<TRIPOS>BOND
     1    11     3 ar  
     2    11     9 ar  
     3     1     9 1   
     4     3     2 ar  
     5     9     6 ar  
     6     2     8 1   
     7     2    10 ar  
     8     6    10 ar  
     9     8     4 1   
    10    10     5 1   
    11     4    20 2   
    12     4     7 1   
    13     5     7 2   
    14     1    12 1   
    15     1    13 1   
    16     1    14 1   
    17     3    15 1   
    18     5    16 1   
    19     6    17 1   
    20     7    18 1   
    21    11    19 1   
@<TRIPOS>SUBSTRUCTURE
     1 3AV         1 TEMP              0 ****  ****    0 ROOT
