@<TRIPOS>MOLECULE
3AV
   20    19     1     0     0
SMALL
bcc


@<TRIPOS>ATOM
      1 C01         0.6960    0.6710   -0.6880 c3        1 3AV     -0.189000
      2 C02         4.4640   -0.3110   -0.0950 c2        1 3AV     -0.261000
      3 C03         4.0440    0.5930    0.8180 c1        1 3AV      0.208000
      4 C04         6.2480    0.1470   -1.6130 c2        1 3AV      0.380000
      5 C05         5.5710    1.4770   -3.6110 c1        1 3AV      0.317000
      6 C06         2.2690   -1.2620   -0.5720 c2        1 3AV     -0.170000
      7 C07         5.3090    0.8220   -2.4970 c2        1 3AV     -0.552000
      8 O01         5.8230   -0.3970   -0.4120 os        1 3AV     -0.169000
      9 C08         1.6340   -0.1440    0.1210 c2        1 3AV     -0.063000
     10 C09         3.6070   -1.3420   -0.6700 c2        1 3AV     -0.105000
     11 C           1.9060    0.1300    1.4140 c2        1 3AV     -0.192000
     12 H1          1.2120    1.0750   -1.5950 hc        1 3AV      0.091667
     13 H2         -0.1590    0.0340   -1.0280 hc        1 3AV      0.091667
     14 H3          0.2890    1.5290   -0.0990 hc        1 3AV      0.091667
     15 H4          1.4780    1.0030    1.9250 ha        1 3AV      0.139500
     16 H5          4.1180   -2.1760   -1.1760 ha        1 3AV      0.155000
     17 H6          1.6030   -2.0120   -1.0250 ha        1 3AV      0.153000
     18 H7          4.2380    0.7730   -2.1900 ha        1 3AV      0.220000
     19 H8          2.4770   -0.5560    2.0630 ha        1 3AV      0.139500
     20 O           7.4550   -0.0210   -1.7820 o         1 3AV     -0.289000
@<TRIPOS>BOND
     1    1    9 1   
     2    1   12 1   
     3    1   13 1   
     4    1   14 1   
     5    2    3 1   
     6    2    8 1   
     7    2   10 1   
     8    4    7 1   
     9    4    8 1   
    10    4   20 1   
    11    5    7 1   
    12    6    9 1   
    13    6   10 1   
    14    6   17 1   
    15    7   18 1   
    16    9   11 1   
    17   10   16 1   
    18   11   15 1   
    19   11   19 1   
@<TRIPOS>SUBSTRUCTURE
     1 3AV         1 TEMP              0 ****  ****    0 ROOT
