@<TRIPOS>MOLECULE
3AW
   16    16     1     0     0
SMALL
bcc


@<TRIPOS>ATOM
      1 N1           0.0000     0.0000     0.0000 nb         1 3AW      -0.787000
      2 C6           1.3210     0.0000     0.0000 ca         1 3AW       0.711300
      3 C5           2.0730    -0.0000    -1.3060 c3         1 3AW      -0.034400
      4 NAA          1.9850     0.0000     1.1420 nb         1 3AW      -0.787000
      5 C2          -0.6690     0.0000     1.1520 ca         1 3AW       0.770900
      6 CAI          1.3250     0.0000     2.2990 ca         1 3AW       0.770900
      7 NAH         -0.0040     0.0000     2.3030 nb         1 3AW      -0.814000
      8 NAI          2.0190    -0.0000     3.4910 nv         1 3AW      -0.495000
      9 N3          -2.0480     0.0000     1.1510 nv         1 3AW      -0.495000
     10 H51C         2.5790    -0.9490    -1.4310 hc         1 3AW       0.019700
     11 H52C         2.8030     0.8010    -1.3030 hc         1 3AW       0.019700
     12 H53C         1.3770     0.1490    -2.1230 hc         1 3AW       0.019700
     13 H31N        -2.5490    -0.0090     2.0170 hn         1 3AW       0.275050
     14 H32N        -2.5480     0.0060     0.2840 hn         1 3AW       0.275050
     15 HAI1         2.8810    -0.5020     3.5680 hn         1 3AW       0.275050
     16 HAI2         1.6390     0.4670     4.2910 hn         1 3AW       0.275050
@<TRIPOS>BOND
     1     1     2 ar  
     2     1     5 ar  
     3     2     3 1   
     4     2     4 ar  
     5     3    10 1   
     6     3    11 1   
     7     3    12 1   
     8     4     6 ar  
     9     5     7 ar  
    10     5     9 1   
    11     6     7 ar  
    12     6     8 1   
    13     8    15 1   
    14     8    16 1   
    15     9    13 1   
    16     9    14 1   
@<TRIPOS>SUBSTRUCTURE
     1 3AW         1 TEMP              0 ****  ****    0 ROOT
