@<TRIPOS>MOLECULE
molecule
   11    11     1     0     0
SMALL
bcc


@<TRIPOS>ATOM
      1 N2           0.0000     0.0000     0.0000 nv         1 3AX      -0.962200
      2 C1           1.3920     0.0000     0.0000 cc         1 3AX       0.161300
      3 N1           2.1920     0.0000     1.0900 na         1 3AX      -0.059600
      4 N3           3.5210    -0.0060     0.6500 nc         1 3AX      -0.513800
      5 C3           3.5230    -0.0090    -0.6580 cd         1 3AX       0.335200
      6 C2           2.1970    -0.0050    -1.0990 cd         1 3AX      -0.359300
      7 H1          -0.5000    -0.8670     0.0050 hn         1 3AX       0.436800
      8 H2          -0.5000     0.8670     0.0010 hn         1 3AX       0.436800
      9 H3           1.8880     0.0030     2.0440 hn         1 3AX       0.322700
     10 H4           4.4020    -0.0140    -1.2910 h4         1 3AX       0.045100
     11 H5           1.8670    -0.0070    -2.1310 ha         1 3AX       0.157000
@<TRIPOS>BOND
     1     4     5 2   
     2     4     3 1   
     3     5     6 1   
     4     3     2 1   
     5     2     6 2   
     6     2     1 1   
     7     1     7 1   
     8     1     8 1   
     9     3     9 1   
    10     5    10 1   
    11     6    11 1   
@<TRIPOS>SUBSTRUCTURE
     1 3AX         1 TEMP              0 ****  ****    0 ROOT
