@<TRIPOS>MOLECULE
molecule
   16    16     1     0     0
SMALL
bcc


@<TRIPOS>ATOM
      1 NAA          0.0000     0.0000     0.0000 nv         1 3AY      -1.040000
      2 C6           1.3860     0.0000     0.0000 ca         1 3AY       0.773200
      3 C5           2.0910     0.0000     1.2010 ca         1 3AY      -0.514600
      4 N1           2.0600    -0.0050    -1.1470 nb         1 3AY      -0.868000
      5 C2           3.3850     0.0000    -1.1560 ca         1 3AY       0.989900
      6 NAH          4.0510    -0.0000    -2.3690 nv         1 3AY      -1.000500
      7 N3           4.0890    -0.0010    -0.0340 nb         1 3AY      -0.868000
      8 C4           3.4830    -0.0010     1.1510 ca         1 3AY       0.773200
      9 NAI          4.2260    -0.0020     2.3210 nv         1 3AY      -1.040000
     10 HAA1        -0.5000     0.0610     0.8650 hn         1 3AY       0.440050
     11 HAA2        -0.5000    -0.0650    -0.8640 hn         1 3AY       0.440050
     12 H5           1.5700     0.0000     2.1500 ha         1 3AY       0.141000
     13 HAH1         3.5970    -0.3510    -3.1890 hn         1 3AY       0.447300
     14 HAH2         4.9950     0.3280    -2.4210 hn         1 3AY       0.447300
     15 HAI1         4.2760    -0.8300     2.8820 hn         1 3AY       0.440050
     16 HAI2         4.7210     0.8220     2.6010 hn         1 3AY       0.440050
@<TRIPOS>BOND
     1     1     2 1
     2     1    10 1
     3     1    11 1
     4     2     3 ar
     5     2     4 ar
     6     3     8 ar
     7     3    12 1
     8     4     5 ar
     9     5     6 1
    10     5     7 ar
    11     6    13 1
    12     6    14 1
    13     7     8 ar
    14     8     9 1
    15     9    15 1
    16     9    16 1
@<TRIPOS>SUBSTRUCTURE
     1 3AY         1 TEMP              0 ****  ****    0 ROOT
