@<TRIPOS>MOLECULE
3B0
   16    16     1     0     0
SMALL
bcc


@<TRIPOS>ATOM
      1 C01          0.0000     0.0000     0.0000 ca         1 3B0      -0.294300
      2 F01          4.0550    -0.6580     0.1420 f          1 3B0      -0.209967
      3 F02          4.0170     1.3210     1.2860 f          1 3B0      -0.209967
      4 C02          2.0460     0.0000     1.2210 ca         1 3B0      -0.396600
      5 C03          1.3830     0.0000     0.0000 ca         1 3B0       0.033000
      6 C04          3.5510     0.0010     1.2690 c3         1 3B0       0.654200
      7 F            3.9820    -0.6590     2.4260 f          1 3B0      -0.209967
      8 C05          1.3110    -0.0010     2.3890 ca         1 3B0       0.511200
      9 N01         -0.0090     0.0110     2.3590 nb         1 3B0      -0.644000
     10 C           -0.6780     0.0050     1.2160 ca         1 3B0       0.532200
     11 N           -2.0670     0.0040     1.2300 nv         1 3B0      -0.545500
     12 H1          -0.5490    -0.0020    -0.9340 ha         1 3B0       0.123000
     13 H2           1.9370    -0.0040    -0.9310 ha         1 3B0       0.118000
     14 H3           1.8240     0.0020     3.3430 h4         1 3B0      -0.009900
     15 H4          -2.5610     0.5030     1.9440 hn         1 3B0       0.274800
     16 H5          -2.5740    -0.5010     0.5310 hn         1 3B0       0.274800
@<TRIPOS>BOND
     1     1     5 ar  
     2     1    10 ar  
     3     1    12 1   
     4     2     6 1   
     5     3     6 1   
     6     4     5 ar  
     7     4     6 1   
     8     4     8 ar  
     9     5    13 1   
    10     6     7 1   
    11     8     9 ar  
    12     8    14 1   
    13     9    10 ar  
    14    10    11 1   
    15    11    15 1   
    16    11    16 1   
@<TRIPOS>SUBSTRUCTURE
     1 3B0         1 TEMP              0 ****  ****    0 ROOT
