@<TRIPOS>MOLECULE
3B1
   29    34     1     0     0
SMALL
bcc


@<TRIPOS>ATOM
      1 C10          0.0000     0.0000     0.0000 ca         1 3B1      -0.115500
      2 C01          1.3830     0.0000     0.0000 ca         1 3B1      -0.100000
      3 N01          4.4400     2.3640     0.5100 n1         1 3B1      -0.006000
      4 C02         -0.6900     0.0050     1.1970 ca         1 3B1      -0.088000
      5 C03          5.9970    -1.9570    -0.9310 c3         1 3B1      -0.424000
      6 C04          2.0740     0.0000     1.1960 ca         1 3B1      -0.078000
      7 C05          5.5360    -0.9510     0.1260 c3         1 3B1      -0.651000
      8 N            4.0710    -0.9950     0.2300 nx         1 3B1       0.386000
      9 C06          0.0020     0.0110     2.3940 ca         1 3B1      -0.115500
     10 C07          4.0940    -3.3380    -0.4740 DU         1 3B1       0.008000
     11 C08          4.0720     1.3340     0.8180 c1         1 3B1      -0.185000
     12 C09          3.5810    -0.0010     1.1960 c3         1 3B1       0.052000
     13 O            5.5180    -3.2590    -0.5840 os         1 3B1       0.081000
     14 C11          1.3830    -0.0000     2.3940 ca         1 3B1      -0.100000
     15 C            3.6140    -2.3450     0.5870 DU         1 3B1       0.009000
     16 H1          -0.5420    -0.0020    -0.9380 ha         1 3B1       0.109500
     17 H2           1.9240    -0.0040    -0.9380 ha         1 3B1       0.136000
     18 H3          -1.7740     0.0100     1.1980 ha         1 3B1       0.105000
     19 H5           7.0700    -2.0270    -0.8010 h1         1 3B1       0.198500
     20 H6           4.5210    -0.5710     0.1480 DU         1 3B1       0.125000
     21 H7           6.0840    -0.0260     0.2610 hx         1 3B1       0.170000
     22 H9          -0.5510     0.0340     3.3250 ha         1 3B1       0.109500
     23 H10          3.6790    -4.3380    -0.4550 ha         1 3B1       0.121000
     24 H11          4.1160    -2.7880     0.4590 DU         1 3B1      -0.156000
     25 H12          3.9430    -0.2510     2.1860 hx         1 3B1       0.104000
     26 H13          1.3280    -0.3810     3.4070 ha         1 3B1       0.136000
     27 H14          2.5480    -2.4960     0.7040 hx         1 3B1       0.126000
     28 H15          4.2440    -3.1380     0.2020 DU         1 3B1      -0.156000
     29 H4           5.6230    -2.7880    -0.3450 h1         1 3B1       0.198500
@<TRIPOS>BOND
     1     1     2 1   
     2     1     4 1   
     3     1    16 1   
     4     2     6 1   
     5     2    17 1   
     6     3    11 1   
     7     4     9 1   
     8     4    18 1   
     9     5     7 1   
    10     5    13 1   
    11     5    19 1   
    12     5    29 1   
    13     6    12 1   
    14     6    14 1   
    15     7     8 1   
    16     7    20 1   
    17     7    21 1   
    18     8    12 1   
    19     8    15 1   
    20     8    20 1   
    21     9    14 1   
    22     9    22 1   
    23    10    13 1   
    24    10    15 1   
    25    10    23 1   
    26    10    24 1   
    27    10    28 1   
    28    11    12 1   
    29    12    25 1   
    30    14    26 1   
    31    15    24 1   
    32    15    27 1   
    33    15    28 1   
    34    24    28 1   
@<TRIPOS>SUBSTRUCTURE
     1 3B1         1 TEMP              0 ****  ****    0 ROOT
