@<TRIPOS>MOLECULE
molecule
   29    30     1     0     0
SMALL
bcc


@<TRIPOS>ATOM
      1 C10          0.0000     0.0000     0.0000 ca         1 3B1      -0.144000
      2 C01          1.3830     0.0000     0.0000 ca         1 3B1      -0.120000
      3 N01          4.4400     2.3640     0.5100 n1         1 3B1      -0.310800
      4 C02         -0.6900     0.0050     1.1970 ca         1 3B1      -0.115000
      5 C03          5.9970    -1.9570    -0.9310 c3         1 3B1      -0.130600
      6 C04          2.0740     0.0000     1.1960 ca         1 3B1      -0.082300
      7 C05          5.5360    -0.9510     0.1260 c3         1 3B1      -0.110700
      8 N            4.0710    -0.9950     0.2300 n3         1 3B1      -0.578600
      9 C06          0.0020     0.0110     2.3940 ca         1 3B1      -0.144000
     10 C07          4.0940    -3.3380    -0.4740 c3         1 3B1      -0.130600
     11 C08          4.0720     1.3340     0.8180 c1         1 3B1       0.189700
     12 C09          3.5810    -0.0010     1.1960 c3         1 3B1       0.241900
     13 O            5.5180    -3.2590    -0.5840 os         1 3B1      -0.162600
     14 C11          1.3830    -0.0000     2.3940 ca         1 3B1      -0.120000
     15 C            3.6140    -2.3450     0.5870 c3         1 3B1      -0.110700
     16 H1          -0.5420    -0.0020    -0.9380 ha         1 3B1       0.138000
     17 H2           1.9240    -0.0040    -0.9380 ha         1 3B1       0.163500
     18 H3          -1.7740     0.0100     1.1980 ha         1 3B1       0.134000
     19 H5           7.0700    -2.0270    -0.8010 h1         1 3B1       0.120450
     20 H6           4.5210    -0.5710     0.1480 h1         1 3B1       0.126450
     21 H7           6.0840    -0.0260     0.2610 h1         1 3B1       0.126450
     22 H9          -0.5510     0.0340     3.3250 ha         1 3B1       0.138000
     23 H10          3.6790    -4.3380    -0.4550 h1         1 3B1       0.120450
     24 H11          4.1160    -2.7880     0.4590 h1         1 3B1       0.120450
     25 H12          3.9430    -0.2510     2.1860 h1         1 3B1       0.104700
     26 H13          1.3280    -0.3810     3.4070 ha         1 3B1       0.163500
     27 H14          2.5480    -2.4960     0.7040 h1         1 3B1       0.126450
     28 H15          4.2440    -3.1380     0.2020 h1         1 3B1       0.126450
     29 H4           5.6230    -2.7880    -0.3450 h1         1 3B1       0.120450
@<TRIPOS>BOND
     1     4     9 ar
     2     4     1 ar
     3     9    14 ar
     4     1     2 ar
     5    14     6 ar
     6     2     6 ar
     7     6    12 1
     8    12    11 1
     9    12     8 1
    10    11     3 3
    11     8    15 1
    12     8     7 1
    13    10    15 1
    14    10    13 1
    15     7     5 1
    16     5    13 1
    17     1    16 1
    18     2    17 1
    19     4    18 1
    20     5    29 1
    21     5    19 1
    22     7    20 1
    23     7    21 1
    24     9    22 1
    25    10    23 1
    26    10    24 1
    27    12    25 1
    28    14    26 1
    29    15    27 1
    30    15    28 1
@<TRIPOS>SUBSTRUCTURE
     1 3B1         1 TEMP              0 ****  ****    0 ROOT
