@<TRIPOS>MOLECULE
molecule
   34    35     1     0     0
SMALL
bcc


@<TRIPOS>ATOM
      1 C1           0.0000     0.0000     0.0000 ca         1 3B3      -0.079000
      2 C2           1.3660     0.0000     0.0000 ca         1 3B3      -0.223300
      3 C3           2.0610     0.0000     1.2070 ca         1 3B3       0.437200
      4 N4           1.4380     0.0010     2.3610 nb         1 3B3      -0.703000
      5 C4A          0.1050     0.0060     2.4300 ca         1 3B3       0.374600
      6 C4B         -0.5590     0.0020     3.6760 ca         1 3B3       0.191300
      7 N5           0.1730     0.0030     4.8630 nu         1 3B3      -0.804600
      8 C6          -0.5220     0.0040     6.1530 c3         1 3B3       0.236800
      9 C8A         -1.9370     0.0020     3.7110 ca         1 3B3      -0.239000
     10 C9          -2.6790     0.0030     2.5340 ca         1 3B3      -0.009000
     11 C10         -2.0660     0.0010     1.3180 ca         1 3B3      -0.178200
     12 C1A         -0.6640     0.0010     1.2420 ca         1 3B3      -0.086300
     13 CB           0.5050     0.0050     7.2860 c3         1 3B3       0.104100
     14 CA          -0.2160    -0.1190     8.6290 c3         1 3B3       0.083800
     15 N            0.7710    -0.1180     9.7170 nz         1 3B3      -0.808600
     16 O           -2.5110     0.6450    -0.8880 o          1 3B3      -0.196000
     17 OXT         -3.9080    -0.6440     0.0270 o          1 3B3      -0.196000
     18 N1          -2.8760     0.0000     0.0790 no         1 3B3       0.295200
     19 O16          1.2480     1.2250     7.2550 oh         1 3B3      -0.593800
     20 H1          -0.5570    -0.0000    -0.9290 ha         1 3B3       0.187000
     21 H2           1.9080    -0.0010    -0.9380 ha         1 3B3       0.158000
     22 H3           3.1440    -0.0000     1.1920 h4         1 3B3       0.032100
     23 H5           1.1730    -0.0020     4.8330 hn         1 3B3       0.463800
     24 H6C1        -1.1420    -0.8800     6.2300 h1         1 3B3       0.064200
     25 H6C2        -1.1430     0.8880     6.2280 h1         1 3B3       0.064200
     26 H8A         -2.4490     0.0040     4.6660 ha         1 3B3       0.137000
     27 H9          -3.7620     0.0030     2.5860 ha         1 3B3       0.165000
     28 HB           1.1820    -0.8320     7.1610 h1         1 3B3       0.059700
     29 HAC1        -0.8920     0.7180     8.7550 hx         1 3B3       0.123700
     30 HAC2        -0.7780    -1.0440     8.6530 hx         1 3B3       0.123700
     31 HN1          1.4850    -0.7910     9.5200 hn         1 3B3       0.461467
     32 HN2          1.1810     0.7910     9.7950 hn         1 3B3       0.461467
     33 H16          2.1590     1.0350     7.1030 ho         1 3B3       0.430000
     34 HN3          0.3160    -0.3410    10.5810 hn         1 3B3       0.461467
@<TRIPOS>BOND
     1     1     2 ar  
     2     1    12 ar  
     3     1    20 1   
     4     2     3 ar  
     5     2    21 1   
     6     3     4 ar  
     7     3    22 1   
     8     4     5 ar  
     9     5     6 ar  
    10     5    12 ar  
    11     6     7 1   
    12     6     9 ar  
    13     7     8 1   
    14     7    23 1   
    15     8    13 1   
    16     8    24 1   
    17     8    25 1   
    18     9    10 ar  
    19     9    26 1   
    20    10    11 ar  
    21    10    27 1   
    22    11    12 ar  
    23    11    18 1   
    24    13    14 1   
    25    13    19 1   
    26    13    28 1   
    27    14    15 1   
    28    14    29 1   
    29    14    30 1   
    30    15    31 1   
    31    15    32 1   
    32    16    18 1   
    33    17    18 1   
    34    19    33 1   
    35    34    15 1   
@<TRIPOS>SUBSTRUCTURE
     1 3B3         1 TEMP              0 ****  ****    0 ROOT
