@<TRIPOS>MOLECULE
molecule
   32    33     1     0     0
SMALL
bcc


@<TRIPOS>ATOM
      1 CAJ          0.0000     0.0000     0.0000 c3         1 3B4      -0.094400
      2 CAH          1.5300     0.0000     0.0000 c3         1 3B4      -0.079400
      3 CAG          2.0400     0.0000     1.4430 c3         1 3B4      -0.080400
      4 CAI          1.5300    -1.2490     2.1640 c3         1 3B4      -0.079400
      5 CAK         -0.0000    -1.2490     2.1640 c3         1 3B4      -0.094400
      6 CAP         -0.5100    -1.2490     0.7210 c3         1 3B4       0.240500
      7 NAL         -1.9750    -1.2490     0.7210 nu         1 3B4      -0.818600
      8 CAN         -2.6690    -1.7560    -0.3690 ca         1 3B4       0.230600
      9 CAE         -1.9820    -2.1600    -1.5070 ca         1 3B4      -0.258000
     10 CAC         -2.6750    -2.6650    -2.5900 ca         1 3B4      -0.103000
     11 CAD         -4.0560    -2.7730    -2.5510 ca         1 3B4      -0.230000
     12 CAF         -4.7540    -2.3780    -1.4310 ca         1 3B4      -0.048000
     13 CAO         -4.0680    -1.8710    -0.3240 ca         1 3B4      -0.189600
     14 CAM         -4.8070    -1.4530     0.8780 c          1 3B4       0.902200
     15 OAB         -6.1360    -1.6690     0.9620 o          1 3B4      -0.844800
     16 OAA         -4.2210    -0.9140     1.7950 o          1 3B4      -0.844800
     17 HAJ         -0.3600    -0.0030    -1.0220 hc         1 3B4       0.051200
     18 HAJA        -0.3600     0.8840     0.5130 hc         1 3B4       0.051200
     19 HAH          1.8900     0.8860    -0.5090 hc         1 3B4       0.031950
     20 HAHA         1.8900    -0.8860    -0.5090 hc         1 3B4       0.031950
     21 HAG          3.1230    -0.0020     1.4420 hc         1 3B4       0.031700
     22 HAGA         1.6760     0.8840     1.9530 hc         1 3B4       0.031700
     23 HAI          1.8900    -2.1330     1.6520 hc         1 3B4       0.031950
     24 HAIA         1.8890    -1.2460     3.1860 hc         1 3B4       0.031950
     25 HAK         -0.3600    -2.1360     2.6720 hc         1 3B4       0.051200
     26 HAKA        -0.3600    -0.3640     2.6730 hc         1 3B4       0.051200
     27 HAP         -0.1440    -2.1320     0.2120 h1         1 3B4       0.044700
     28 HNAL        -2.4750    -0.8710     1.5010 hn         1 3B4       0.498800
     29 HAE         -0.9030    -2.0790    -1.5460 ha         1 3B4       0.108000
     30 HAC         -2.1350    -2.9780    -3.4750 ha         1 3B4       0.095000
     31 HAD         -4.5900    -3.1690    -3.4070 ha         1 3B4       0.100000
     32 HAF         -5.8330    -2.4680    -1.4050 ha         1 3B4       0.149000
@<TRIPOS>BOND
     1     6     1 1   
     2     2     1 1   
     3     1    17 1   
     4     1    18 1   
     5     3     2 1   
     6     2    19 1   
     7     2    20 1   
     8     4     3 1   
     9     3    21 1   
    10     3    22 1   
    11     5     4 1   
    12     4    23 1   
    13     4    24 1   
    14     5     6 1   
    15     5    25 1   
    16     5    26 1   
    17     6     7 1   
    18     6    27 1   
    19     7     8 1   
    20     7    28 1   
    21     9     8 ar  
    22     8    13 ar  
    23     9    10 ar  
    24     9    29 1   
    25    10    11 ar  
    26    10    30 1   
    27    11    12 ar  
    28    11    31 1   
    29    13    12 ar  
    30    12    32 1   
    31    13    14 1   
    32    16    14 1   
    33    14    15 1   
@<TRIPOS>SUBSTRUCTURE
     1 3B4         1 TEMP              0 ****  ****    0 ROOT
