@<TRIPOS>MOLECULE
molecule
   82    85     1     0     0
SMALL
bcc


@<TRIPOS>ATOM
      1 C10          0.0000     0.0000     0.0000 cc         1 3B5      -0.195900
      2 C8           0.7330    -0.0000     2.1140 cd         1 3B5      -0.026400
      3 C6          -0.3860    -0.0030     4.2200 c          1 3B5       0.686700
      4 C3          -1.5400    -0.0040     6.4380 ca         1 3B5      -0.032000
      5 C1          -0.2060    -0.0080     8.4190 ca         1 3B5       0.445200
      6 C4          -0.3510    -0.0040     5.6980 ca         1 3B5      -0.276900
      7 C5           0.8670    -0.0050     6.3790 ca         1 3B5       0.444200
      8 C11          1.8120     0.0000     1.2870 cc         1 3B5      -0.169300
      9 N12          1.3760     0.0000     0.0000 na         1 3B5      -0.001100
     10 C12          2.2300     0.0010    -1.1900 c3         1 3B5       0.038600
     11 C13         -0.8650    -0.0060    -1.1840 c          1 3B5       0.719700
     12 C15         -3.0210    -0.2370    -2.1790 cd         1 3B5      -0.012400
     13 C17         -3.7120    -0.3790    -4.3020 cc         1 3B5      -0.204900
     14 C20         -3.7380    -0.4390    -5.7670 c          1 3B5       0.714700
     15 C25         -1.7870     0.0670   -11.7150 c3         1 3B5      -0.026400
     16 C27         -0.8910    -1.1220   -12.0620 c3         1 3B5      -0.085600
     17 C28         -4.6430    -0.3580   -10.8580 c          1 3B5       0.617600
     18 C32         -9.5000    -0.7310   -11.6020 c3         1 3B5       0.100800
     19 C31         -8.3440    -0.6140   -10.6050 c3         1 3B5      -0.130400
     20 C22         -2.6440    -0.2070    -7.8560 cc         1 3B5       0.581300
     21 C23         -3.5320    -0.2460    -9.8980 cd         1 3B5       0.297800
     22 C24         -2.2560    -0.0550   -10.2890 cc         1 3B5      -0.080700
     23 C34        -11.9130    -0.6700   -11.7870 c3         1 3B5       0.089600
     24 N33        -10.7720    -0.7950   -10.8700 nx         1 3B5      -0.656400
     25 C35        -10.8640    -2.0320   -10.0830 c3         1 3B5       0.089600
     26 C30         -7.0190    -0.5460   -11.3660 c3         1 3B5       0.127000
     27 N29         -5.9130    -0.4340   -10.4110 ns         1 3B5      -0.581900
     28 O28         -4.4160    -0.3850   -12.0520 o          1 3B5      -0.609100
     29 N22         -3.7140    -0.3240    -8.5770 nd         1 3B5      -0.687000
     30 C26         -0.9980     1.3680   -11.8830 c3         1 3B5      -0.085600
     31 S22         -1.2520     0.0310    -8.9070 ss         1 3B5      -0.157300
     32 O20         -4.7850    -0.6530    -6.3490 o          1 3B5      -0.589100
     33 N19         -4.8040    -0.4460    -3.4680 na         1 3B5      -0.005100
     34 C18         -4.3750    -0.3560    -2.1820 cc         1 3B5      -0.168300
     35 C16         -2.5890    -0.2460    -3.5140 cd         1 3B5      -0.151000
     36 N14         -2.2010    -0.1180    -1.0430 ns         1 3B5      -0.439100
     37 O13         -0.3770     0.0910    -2.2950 o          1 3B5      -0.636100
     38 C9          -0.4180    -0.0010     1.3130 cd         1 3B5      -0.155000
     39 N7           0.7650    -0.0020     3.5200 ns         1 3B5      -0.444100
     40 O6          -1.4530    -0.0020     3.6380 o          1 3B5      -0.611100
     41 N1           0.8970    -0.0070     7.6960 nb         1 3B5      -0.692000
     42 C2          -1.4530    -0.0060     7.8190 ca         1 3B5      -0.263300
     43 H3          -2.5030    -0.0030     5.9420 ha         1 3B5       0.162000
     44 H1          -0.1350    -0.0100     9.5000 h4         1 3B5       0.030100
     45 H5           1.7950    -0.0040     5.8210 h4         1 3B5       0.016100
     46 H11          2.8480     0.0000     1.6020 h4         1 3B5       0.172000
     47 H123         2.0270    -0.8840    -1.7810 h1         1 3B5       0.060700
     48 H121         3.2710     0.0020    -0.8880 h1         1 3B5       0.060700
     49 H122         2.0250     0.8850    -1.7810 h1         1 3B5       0.060700
     50 H21         -1.7300    -0.1540    -5.9910 hn         1 3B5       0.353500
     51 H25         -2.6550     0.0660   -12.3640 hc         1 3B5       0.119700
     52 H273        -1.4180    -2.0450   -11.8520 hc         1 3B5       0.040700
     53 H271         0.0130    -1.0790   -11.4670 hc         1 3B5       0.040700
     54 H272        -0.6330    -1.0850   -13.1140 hc         1 3B5       0.040700
     55 H322        -9.5020     0.1340   -12.2550 hx         1 3B5       0.108200
     56 H321        -9.3770    -1.6300   -12.1930 hx         1 3B5       0.108200
     57 H312        -8.3420    -1.4780    -9.9520 hc         1 3B5       0.069200
     58 H311        -8.4670     0.2860   -10.0130 hc         1 3B5       0.069200
     59 H193        -6.4700     0.2470    -4.5260 h1         1 3B5       0.056700
     60 H192        -6.8410    -0.6100    -3.0240 h1         1 3B5       0.056700
     61 H191        -6.3120    -1.5130    -4.4490 h1         1 3B5       0.056700
     62 H341       -11.9020    -1.4920   -12.4930 hx         1 3B5       0.102700
     63 H342       -12.8360    -0.6940   -11.2210 hx         1 3B5       0.102700
     64 H343       -11.8440     0.2680   -12.3250 hx         1 3B5       0.102700
     65 H353       -10.3430    -1.9010    -9.1420 hx         1 3B5       0.102700
     66 H352       -11.9060    -2.2600    -9.8890 hx         1 3B5       0.102700
     67 H351       -10.4130    -2.8470   -10.6350 hx         1 3B5       0.102700
     68 H302        -6.8960    -1.4450   -11.9570 h1         1 3B5       0.061200
     69 H301        -7.0210     0.3180   -12.0190 h1         1 3B5       0.061200
     70 H29         -6.1040    -0.3700    -9.4310 hn         1 3B5       0.346500
     71 H263        -1.5860     2.1970   -11.5090 hc         1 3B5       0.040700
     72 H261        -0.0710     1.3020   -11.3270 hc         1 3B5       0.040700
     73 H262        -0.7800     1.5240   -12.9330 hc         1 3B5       0.040700
     74 H18         -5.0080    -0.3810    -1.3030 h4         1 3B5       0.175000
     75 H16         -1.5650    -0.1680    -3.8600 ha         1 3B5       0.189000
     76 H14         -2.6100    -0.1020    -0.1300 hn         1 3B5       0.337500
     77 H9          -1.4440    -0.0010     1.6620 ha         1 3B5       0.188000
     78 H7           1.6430    -0.0030     4.0000 hn         1 3B5       0.325500
     79 H2          -2.3520    -0.0070     8.4240 ha         1 3B5       0.147000
     80 H33        -10.8020    -0.0230   -10.2350 hn         1 3B5       0.446800
     81 C19         -6.1970    -0.5900    -3.8940 c3         1 3B5       0.040600
     82 N21         -2.6030    -0.2560    -6.4700 ns         1 3B5      -0.517400
@<TRIPOS>BOND
     1    23    24 1   
     2    16    15 1   
     3    25    24 1   
     4    18    24 1   
     5    18    19 1   
     6    28    17 2   
     7    15    30 1   
     8    15    22 1   
     9    19    26 1   
    10    26    27 1   
    11    17    27 1   
    12    17    21 1   
    13    22    21 2   
    14    22    31 1   
    15    21    29 1   
    16    31    20 1   
    17    29    20 2   
    18    20    82 1   
    19    32    14 2   
    20    82    14 1   
    21    14    13 1   
    22    81    33 1   
    23    13    33 1   
    24    13    35 2   
    25    33    34 1   
    26    35    12 1   
    27    34    12 2   
    28    12    36 1   
    29    36    11 1   
    30    11    37 2   
    31    11     1 1   
    32     1    38 2   
    33     1     9 1   
    34    38     2 1   
    35     9    10 1   
    36     9     8 1   
    37     2     8 2   
    38     2    39 1   
    39    39     3 1   
    40     3    40 2   
    41     3     6 1   
    42     7     6 ar  
    43     7    41 ar  
    44     6     4 ar  
    45    41     5 ar  
    46     4    42 ar  
    47     5    42 ar  
    48     4    43 1   
    49     5    44 1   
    50     7    45 1   
    51     8    46 1   
    52    10    47 1   
    53    10    48 1   
    54    10    49 1   
    55    82    50 1   
    56    15    51 1   
    57    16    52 1   
    58    16    53 1   
    59    16    54 1   
    60    18    55 1   
    61    18    56 1   
    62    19    57 1   
    63    19    58 1   
    64    81    59 1   
    65    81    60 1   
    66    81    61 1   
    67    23    62 1   
    68    23    63 1   
    69    23    64 1   
    70    25    65 1   
    71    25    66 1   
    72    25    67 1   
    73    26    68 1   
    74    26    69 1   
    75    27    70 1   
    76    30    71 1   
    77    30    72 1   
    78    30    73 1   
    79    34    74 1   
    80    35    75 1   
    81    36    76 1   
    82    38    77 1   
    83    39    78 1   
    84    42    79 1   
    85    24    80 1   
@<TRIPOS>SUBSTRUCTURE
     1 3B5         1 TEMP              0 ****  ****    0 ROOT
