@<TRIPOS>MOLECULE
molecule
   39    40     1     0     0
SMALL
bcc


@<TRIPOS>ATOM
      1 C5           0.0000     0.0000     0.0000 ca         1 3B6      -0.063000
      2 C4           1.3780     0.0000     0.0000 ca         1 3B6       0.052900
      3 I7           2.4260    -0.0010    -1.8140 i          1 3B6      -0.123900
      4 C3           2.0750     0.0000     1.2120 ca         1 3B6       0.083000
      5 C8           3.7480     0.1400     1.1540 cg         1 3B6       0.207800
      6 N8           4.8880     0.0050     1.3400 n1         1 3B6      -0.350800
      7 C2           1.3710     0.0010     2.4200 ca         1 3B6      -0.110000
      8 C1          -0.0060     0.0010     2.4110 ca         1 3B6      -0.083000
      9 C6          -0.6960     0.0010     1.2040 ca         1 3B6      -0.038400
     10 N9          -2.0920     0.0010     1.2000 ns         1 3B6      -0.367100
     11 C10         -2.7680     0.6460     2.1710 c          1 3B6       0.597100
     12 O10         -2.1680     1.3060     2.9930 o          1 3B6      -0.657100
     13 C11         -4.2710     0.5490     2.2360 c3         1 3B6       0.113800
     14 O11         -4.6810    -0.7550     1.8200 oh         1 3B6      -0.560800
     15 C12         -4.8910     1.5980     1.3100 c3         1 3B6      -0.142100
     16 C13         -4.7360     0.7970     3.6710 c3         1 3B6       0.012400
     17 O14         -6.1610     0.7050     3.7330 os         1 3B6      -0.302900
     18 C16         -6.7400     0.9000     4.9450 ca         1 3B6       0.147100
     19 C17         -8.1220     0.8230     5.0740 ca         1 3B6      -0.194000
     20 C18         -8.7130     1.0210     6.3020 ca         1 3B6      -0.050000
     21 C19         -7.9220     1.2990     7.4190 ca         1 3B6      -0.060000
     22 C22         -8.5330     1.5060     8.6980 cg         1 3B6       0.242800
     23 N22         -9.0210     1.6880     9.7070 n1         1 3B6      -0.365800
     24 C20         -6.5330     1.3750     7.2860 ca         1 3B6      -0.050000
     25 C21         -5.9490     1.1710     6.0550 ca         1 3B6      -0.194000
     26 H5          -0.5420    -0.0040    -0.9380 ha         1 3B6       0.160000
     27 H2           1.9080     0.0010     3.3600 ha         1 3B6       0.157000
     28 H1          -0.5540     0.0010     3.3460 ha         1 3B6       0.176000
     29 HN9         -2.5920     0.8430     1.4070 hn         1 3B6       0.306500
     30 HO11        -4.8690    -0.7460     0.8970 ho         1 3B6       0.414000
     31 H12         -5.9650     1.6090     1.4450 hc         1 3B6       0.062700
     32 H12A        -4.6580     1.3540     0.2810 hc         1 3B6       0.062700
     33 H12B        -4.4870     2.5740     1.5500 hc         1 3B6       0.062700
     34 H13         -5.2840     1.7310     3.7170 h1         1 3B6       0.133200
     35 H13A        -3.8750     0.8510     4.3260 h1         1 3B6       0.133200
     36 H17         -8.7350     0.6080     4.2070 ha         1 3B6       0.148500
     37 H18         -9.7900     0.9610     6.4010 ha         1 3B6       0.146500
     38 H20         -5.9170     1.5910     8.1500 ha         1 3B6       0.146500
     39 H21         -4.8720     1.2250     5.9520 ha         1 3B6       0.148500
@<TRIPOS>BOND
     1     1     2 ar
     2     1     9 ar
     3     2     3 1
     4     2     4 ar
     5     4     5 1
     6     4     7 ar
     7     5     6 3
     8     7     8 ar
     9     8     9 ar
    10     9    10 1
    11    10    11 1
    12    11    12 2
    13    11    13 1
    14    13    14 1
    15    13    15 1
    16    13    16 1
    17    16    17 1
    18    17    18 1
    19    18    19 ar
    20    18    25 ar
    21    19    20 ar
    22    20    21 ar
    23    21    22 1
    24    21    24 ar
    25    22    23 3
    26    24    25 ar
    27     1    26 1
    28     7    27 1
    29     8    28 1
    30    10    29 1
    31    14    30 1
    32    15    31 1
    33    15    32 1
    34    15    33 1
    35    16    34 1
    36    16    35 1
    37    19    36 1
    38    20    37 1
    39    24    38 1
    40    25    39 1
@<TRIPOS>SUBSTRUCTURE
     1 3B6         1 TEMP              0 ****  ****    0 ROOT
