@<TRIPOS>MOLECULE
3B6
   39    41     1     0     0
SMALL
bcc


@<TRIPOS>ATOM
      1 C5           0.0000     0.0000     0.0000 ca         1 3B6      -0.054000
      2 C4           1.3780     0.0000     0.0000 ca         1 3B6      -0.122000
      3 I7           2.4260    -0.0010    -1.8140 i          1 3B6       0.066000
      4 C3           2.0750     0.0000     1.2120 ca         1 3B6       0.141000
      5 C8           3.7480     0.1400     1.1540 c1         1 3B6      -0.128000
      6 N8           4.8880     0.0050     1.3400 n1         1 3B6      -0.058000
      7 C2           1.3710     0.0010     2.4200 ca         1 3B6      -0.087000
      8 C1          -0.0060     0.0010     2.4110 ca         1 3B6      -0.070000
      9 C6          -0.6960     0.0010     1.2040 ca         1 3B6      -0.071000
     10 N9          -2.0920     0.0010     1.2000 nu         1 3B6      -0.060000
     11 C10         -2.7680     0.6460     2.1710 c3         1 3B6       0.294000
     12 O10         -2.1680     1.3060     2.9930 o          1 3B6      -0.458000
     13 C11         -4.2710     0.5490     2.2360 c3         1 3B6       0.102000
     14 O11         -4.6810    -0.7550     1.8200 oh         1 3B6      -0.280000
     15 C12         -4.8910     1.5980     1.3100 c3         1 3B6      -0.170000
     16 C13         -4.7360     0.7970     3.6710 c3         1 3B6      -0.126000
     17 O14         -6.1610     0.7050     3.7330 os         1 3B6      -0.149000
     18 C16         -6.7400     0.9000     4.9450 ca         1 3B6       0.112000
     19 C17         -8.1220     0.8230     5.0740 ca         1 3B6      -0.177000
     20 C18         -8.7130     1.0210     6.3020 ca         1 3B6      -0.024500
     21 C19         -7.9220     1.2990     7.4190 ca         1 3B6      -0.014000
     22 C22         -8.5330     1.5060     8.6980 c1         1 3B6      -0.094000
     23 N22         -9.0210     1.6880     9.7070 n1         1 3B6      -0.060000
     24 C20         -6.5330     1.3750     7.2860 ca         1 3B6      -0.024500
     25 C21         -5.9490     1.1710     6.0550 ca         1 3B6      -0.177000
     26 H5          -0.5420    -0.0040    -0.9380 ha         1 3B6       0.130000
     27 H2           1.9080     0.0010     3.3600 ha         1 3B6       0.126000
     28 H1          -0.5540     0.0010     3.3460 ha         1 3B6       0.149000
     29 HN9         -2.5920     0.8430     1.4070 DU         1 3B6       0.129000
     30 HO11        -4.8690    -0.7460     0.8970 ho         1 3B6       0.200000
     31 H12         -5.9650     1.6090     1.4450 hc         1 3B6       0.066333
     32 H12A        -4.6580     1.3540     0.2810 hc         1 3B6       0.066333
     33 H12B        -4.4870     2.5740     1.5500 hc         1 3B6       0.066333
     34 H13         -5.2840     1.7310     3.7170 h1         1 3B6       0.139500
     35 H13A        -3.8750     0.8510     4.3260 h1         1 3B6       0.139500
     36 H17         -8.7350     0.6080     4.2070 ha         1 3B6       0.125500
     37 H18         -9.7900     0.9610     6.4010 ha         1 3B6       0.113500
     38 H20         -5.9170     1.5910     8.1500 ha         1 3B6       0.113500
     39 H21         -4.8720     1.2250     5.9520 ha         1 3B6       0.125500
@<TRIPOS>BOND
     1     1     2 1   
     2     1     9 1   
     3     1    26 1   
     4     2     3 1   
     5     2     4 1   
     6     4     5 1   
     7     4     7 1   
     8     5     6 1   
     9     7     8 1   
    10     7    27 1   
    11     8     9 1   
    12     8    28 1   
    13     9    10 1   
    14    10    11 1   
    15    10    29 1   
    16    11    12 1   
    17    11    13 1   
    18    11    29 1   
    19    13    14 1   
    20    13    15 1   
    21    13    16 1   
    22    14    30 1   
    23    15    31 1   
    24    15    32 1   
    25    15    33 1   
    26    16    17 1   
    27    16    34 1   
    28    16    35 1   
    29    17    18 1   
    30    18    19 1   
    31    18    25 1   
    32    19    20 1   
    33    19    36 1   
    34    20    21 1   
    35    20    37 1   
    36    21    22 1   
    37    21    24 1   
    38    22    23 1   
    39    24    25 1   
    40    24    38 1   
    41    25    39 1   
@<TRIPOS>SUBSTRUCTURE
     1 3B6         1 TEMP              0 ****  ****    0 ROOT
