@<TRIPOS>MOLECULE
molecule
   29    31     1     0     0
SMALL
bcc


@<TRIPOS>ATOM
      1 C5           0.0000     0.0000     0.0000 ca         1 3B8      -0.102000
      2 C6           1.3780     0.0000     0.0000 ca         1 3B8      -0.103000
      3 C3          -0.0360     0.0020     2.3990 ca         1 3B8      -0.081000
      4 C2           1.3570     0.0050     2.4070 ca         1 3B8      -0.204600
      5 C1           2.0780     0.0000     1.2030 ca         1 3B8       0.127100
      6 O11          7.6780     1.6010     5.4770 o          1 3B8      -0.422100
      7 C4          -0.7100    -0.0010     1.1930 ca         1 3B8       0.130900
      8 O7           3.4260    -0.0120     1.1980 os         1 3B8      -0.298400
      9 C8           2.1120     0.0230     3.6790 c          1 3B8       0.601300
     10 F9          -2.0610    -0.0040     1.1750 f          1 3B8      -0.113900
     11 O10          1.5800    -0.1980     4.7510 o          1 3B8      -0.508100
     12 N12          6.0390     1.1600     6.9130 nz         1 3B8      -0.679400
     13 C13          6.1970     0.8860     3.2020 ca         1 3B8       0.847200
     14 C14          5.6670     0.9190     4.5080 ca         1 3B8      -0.417900
     15 C15          4.3130     0.6330     4.6920 ca         1 3B8       0.022000
     16 C16          3.5530     0.3250     3.5660 ca         1 3B8      -0.360900
     17 C17          4.1490     0.3000     2.2900 ca         1 3B8       0.791600
     18 N18          5.4390     0.5840     2.1630 nb         1 3B8      -0.733000
     19 N19          7.5310     1.1740     3.0060 nv         1 3B8      -1.046500
     20 C20          6.5270     1.2490     5.6590 c          1 3B8       0.516700
     21 H5          -0.5350    -0.0020    -0.9420 ha         1 3B8       0.174000
     22 H6           1.9180     0.0010    -0.9390 ha         1 3B8       0.171000
     23 H3          -0.5870     0.0010     3.3320 ha         1 3B8       0.179000
     24 HN12         5.6830     0.2370     7.0670 hn         1 3B8       0.477467
     25 HN1A         6.7700     1.3500     7.5690 hn         1 3B8       0.477467
     26 H15          3.8670     0.6480     5.6790 ha         1 3B8       0.141000
     27 HN19         7.7960     2.0050     2.5160 hn         1 3B8       0.469300
     28 HN1B         8.2320     0.5360     3.3270 hn         1 3B8       0.469300
     29 H123         5.2860     1.8090     7.0240 hn         1 3B8       0.477467
@<TRIPOS>BOND
     1     1     2 ar  
     2     1     7 ar  
     3     2     5 ar  
     4     3     4 ar  
     5     3     7 ar  
     6     4     5 ar  
     7     4     9 1   
     8     5     8 1   
     9     6    20 2   
    10     7    10 1   
    11     8    17 1   
    12     9    11 2   
    13     9    16 1   
    14    12    20 1   
    15    13    14 ar  
    16    13    18 ar  
    17    13    19 1   
    18    14    15 ar  
    19    14    20 1   
    20    15    16 ar  
    21    16    17 ar  
    22    17    18 ar  
    23     1    21 1   
    24     2    22 1   
    25     3    23 1   
    26    12    24 1   
    27    12    25 1   
    28    15    26 1   
    29    19    27 1   
    30    19    28 1   
    31    29    12 1   
@<TRIPOS>SUBSTRUCTURE
     1 3B8         1 TEMP              0 ****  ****    0 ROOT
