@<TRIPOS>MOLECULE
molecule
   56    59     1     0     0
SMALL
bcc


@<TRIPOS>ATOM
      1 C15          0.0000     0.0000     0.0000 ca         1 3B9      -0.154500
      2 C1          11.6580    -0.6240     1.5560 ca         1 3B9       0.963900
      3 C2          11.8300    -0.0250     3.7850 ca         1 3B9       0.761200
      4 C3           9.6710    -0.3140     2.6940 ca         1 3B9       0.728300
      5 C8           6.1880    -0.0000     3.8370 c3         1 3B9      -0.136300
      6 C4          10.4160    -0.0020     3.8580 ca         1 3B9      -0.369600
      7 C5           9.7370     0.3170     5.0410 ca         1 3B9      -0.035000
      8 C6           8.3670     0.3140     5.0180 ca         1 3B9      -0.275300
      9 C7           7.6950    -0.0010     3.8430 ca         1 3B9       0.486600
     10 C9           5.6830    -0.0010     2.3930 c3         1 3B9       0.131000
     11 N1          12.3930    -0.3380     2.6260 nb         1 3B9      -0.783000
     12 N2          10.3380    -0.6180     1.5720 nb         1 3B9      -0.730000
     13 N3           8.3380    -0.3000     2.7360 nb         1 3B9      -0.674000
     14 N5          12.6000     0.2700     4.8880 nv         1 3B9      -1.083500
     15 C10          5.6740    -1.2480     4.5580 c3         1 3B9      -0.084600
     16 C11          5.6760     1.2500     4.5560 c3         1 3B9      -0.084600
     17 N6           4.2180    -0.0000     2.3870 ns         1 3B9      -0.588900
     18 C12          3.5480    -0.0010     1.2180 c          1 3B9       0.670700
     19 O1           4.1610    -0.0010     0.1670 o          1 3B9      -0.600100
     20 C13          2.0730     0.0000     1.2120 ca         1 3B9      -0.151600
     21 C14          1.3760     0.0000     0.0000 ca         1 3B9      -0.076500
     22 C16         -0.6980     0.0010     1.2020 ca         1 3B9       0.126100
     23 C17         -0.0090     0.0020     2.4100 ca         1 3B9      -0.154500
     24 C18          1.3680     0.0020     2.4190 ca         1 3B9      -0.076500
     25 O2          -2.0550     0.0010     1.1970 os         1 3B9      -0.249200
     26 C19         -2.6910    -1.1070     0.7350 ca         1 3B9       0.133100
     27 C20         -4.0710    -1.1070     0.5910 ca         1 3B9      -0.180000
     28 C21         -4.7160    -2.2340     0.1210 ca         1 3B9      -0.094000
     29 C22         -3.9870    -3.3640    -0.2050 ca         1 3B9      -0.161000
     30 C23         -2.6110    -3.3660    -0.0620 ca         1 3B9      -0.094000
     31 C24         -1.9610    -2.2390     0.4010 ca         1 3B9      -0.180000
     32 H15         -0.5400    -0.0000    -0.9390 ha         1 3B9       0.149500
     33 H5          10.2790     0.5600     5.9470 ha         1 3B9       0.147000
     34 H6           7.8100     0.4870     5.9310 ha         1 3B9       0.143000
     35 H9           6.0460    -0.8860     1.8840 h1         1 3B9       0.074700
     36 H9A          6.0460     0.8830     1.8830 h1         1 3B9       0.074700
     37 HN4         12.6920    -1.8510     0.2450 hn         1 3B9       0.447800
     38 HN4A        12.3820    -0.2520    -0.3490 hn         1 3B9       0.447800
     39 HN5         12.8720     1.2160     5.0690 hn         1 3B9       0.444800
     40 HN5A        12.9240    -0.4660     5.4840 hn         1 3B9       0.444800
     41 H10          4.6610    -1.0760     4.9010 hc         1 3B9       0.042700
     42 H10A         6.3110    -1.4630     5.4070 hc         1 3B9       0.042700
     43 H10B         5.6860    -2.0900     3.8750 hc         1 3B9       0.042700
     44 H11          5.9190     1.1860     5.6090 hc         1 3B9       0.042700
     45 H11A         4.6010     1.3190     4.4370 hc         1 3B9       0.042700
     46 H11B         6.1440     2.1290     4.1290 hc         1 3B9       0.042700
     47 HN6          3.7150    -0.0130     3.2520 hn         1 3B9       0.310500
     48 H14          1.9190    -0.0010    -0.9380 ha         1 3B9       0.146500
     49 H17         -0.5560     0.0030     3.3450 ha         1 3B9       0.149500
     50 H18          1.9040     0.0020     3.3600 ha         1 3B9       0.146500
     51 H20         -4.6430    -0.2230     0.8460 ha         1 3B9       0.144500
     52 H21         -5.7930    -2.2340     0.0080 ha         1 3B9       0.134000
     53 H22         -4.4950    -4.2480    -0.5710 ha         1 3B9       0.132000
     54 H23         -2.0420    -4.2510    -0.3210 ha         1 3B9       0.134000
     55 H24         -0.8840    -2.2420     0.5130 ha         1 3B9       0.144500
     56 N4          12.3030    -0.9380     0.3760 nv         1 3B9      -1.054500
@<TRIPOS>BOND
     1     1    21 ar  
     2     1    22 ar  
     3     2    11 ar  
     4     2    12 ar  
     5     2    56 1   
     6     3     6 ar  
     7     3    11 ar  
     8     3    14 1   
     9     4     6 ar  
    10     4    12 ar  
    11     4    13 ar  
    12     5     9 1   
    13     5    10 1   
    14     5    15 1   
    15     5    16 1   
    16     6     7 ar  
    17     7     8 ar  
    18     8     9 ar  
    19     9    13 ar  
    20    10    17 1   
    21    17    18 1   
    22    18    19 2   
    23    18    20 1   
    24    20    21 ar  
    25    20    24 ar  
    26    22    23 ar  
    27    22    25 1   
    28    23    24 ar  
    29    25    26 1   
    30    26    27 ar  
    31    26    31 ar  
    32    27    28 ar  
    33    28    29 ar  
    34    29    30 ar  
    35    30    31 ar  
    36     1    32 1   
    37     7    33 1   
    38     8    34 1   
    39    10    35 1   
    40    10    36 1   
    41    56    37 1   
    42    56    38 1   
    43    14    39 1   
    44    14    40 1   
    45    15    41 1   
    46    15    42 1   
    47    15    43 1   
    48    16    44 1   
    49    16    45 1   
    50    16    46 1   
    51    17    47 1   
    52    21    48 1   
    53    23    49 1   
    54    24    50 1   
    55    27    51 1   
    56    28    52 1   
    57    29    53 1   
    58    30    54 1   
    59    31    55 1   
@<TRIPOS>SUBSTRUCTURE
     1 3B9         1 TEMP              0 ****  ****    0 ROOT
