@<TRIPOS>MOLECULE
3B9
   56    59     1     0     0
SMALL
bcc


@<TRIPOS>ATOM
      1 C15          0.0000     0.0000     0.0000 ca         1 3B9      -0.136500
      2 C1          11.6580    -0.6240     1.5560 ca         1 3B9       0.727900
      3 C2          11.8300    -0.0250     3.7850 ca         1 3B9       0.570200
      4 C3           9.6710    -0.3140     2.6940 ca         1 3B9       0.622300
      5 C8           6.1880    -0.0000     3.8370 c3         1 3B9      -0.135300
      6 C4          10.4160    -0.0020     3.8580 ca         1 3B9      -0.346600
      7 C5           9.7370     0.3170     5.0410 ca         1 3B9      -0.016000
      8 C6           8.3670     0.3140     5.0180 ca         1 3B9      -0.234300
      9 C7           7.6950    -0.0010     3.8430 ca         1 3B9       0.416600
     10 C9           5.6830    -0.0010     2.3930 c3         1 3B9       0.059000
     11 N1          12.3930    -0.3380     2.6260 nb         1 3B9      -0.648000
     12 N2          10.3380    -0.6180     1.5720 nb         1 3B9      -0.602000
     13 N3           8.3380    -0.3000     2.7360 nb         1 3B9      -0.542000
     14 N5          12.6000     0.2700     4.8880 nv         1 3B9      -0.652500
     15 C10          5.6740    -1.2480     4.5580 c3         1 3B9       0.000900
     16 C11          5.6760     1.2500     4.5560 c3         1 3B9       0.000900
     17 N6           4.2180    -0.0000     2.3870 ns         1 3B9      -0.211900
     18 C12          3.5480    -0.0010     1.2180 c          1 3B9       0.593700
     19 O1           4.1610    -0.0010     0.1670 o          1 3B9      -0.642100
     20 C13          2.0730     0.0000     1.2120 ca         1 3B9      -0.163600
     21 C14          1.3760     0.0000     0.0000 ca         1 3B9      -0.045000
     22 C16         -0.6980     0.0010     1.2020 ca         1 3B9       0.130100
     23 C17         -0.0090     0.0020     2.4100 ca         1 3B9      -0.136500
     24 C18          1.3680     0.0020     2.4190 ca         1 3B9      -0.045000
     25 O2          -2.0550     0.0010     1.1970 os         1 3B9      -0.221200
     26 C19         -2.6910    -1.1070     0.7350 ca         1 3B9       0.141100
     27 C20         -4.0710    -1.1070     0.5910 ca         1 3B9      -0.169500
     28 C21         -4.7160    -2.2340     0.1210 ca         1 3B9      -0.060000
     29 C22         -3.9870    -3.3640    -0.2050 ca         1 3B9      -0.140000
     30 C23         -2.6110    -3.3660    -0.0620 ca         1 3B9      -0.060000
     31 C24         -1.9610    -2.2390     0.4010 ca         1 3B9      -0.169500
     32 H15         -0.5400    -0.0000    -0.9390 ha         1 3B9       0.121000
     33 H5          10.2790     0.5600     5.9470 ha         1 3B9       0.116000
     34 H6           7.8100     0.4870     5.9310 ha         1 3B9       0.124000
     35 H9           6.0460    -0.8860     1.8840 h1         1 3B9       0.046200
     36 H9A          6.0460     0.8830     1.8830 h1         1 3B9       0.046200
     37 HN4         12.6920    -1.8510     0.2450 hn         1 3B9       0.281300
     38 HN4A        12.3820    -0.2520    -0.3490 hn         1 3B9       0.281300
     39 HN5         12.8720     1.2160     5.0690 hn         1 3B9       0.282800
     40 HN5A        12.9240    -0.4660     5.4840 hn         1 3B9       0.282800
     41 H10          4.6610    -1.0760     4.9010 hc         1 3B9       0.011533
     42 H10A         6.3110    -1.4630     5.4070 hc         1 3B9       0.011533
     43 H10B         5.6860    -2.0900     3.8750 hc         1 3B9       0.011533
     44 H11          5.9190     1.1860     5.6090 hc         1 3B9       0.011533
     45 H11A         4.6010     1.3190     4.4370 hc         1 3B9       0.011533
     46 H11B         6.1440     2.1290     4.1290 hc         1 3B9       0.011533
     47 HN6          3.7150    -0.0130     3.2520 hn         1 3B9       0.183500
     48 H14          1.9190    -0.0010    -0.9380 ha         1 3B9       0.117000
     49 H17         -0.5560     0.0030     3.3450 ha         1 3B9       0.121000
     50 H18          1.9040     0.0020     3.3600 ha         1 3B9       0.117000
     51 H20         -4.6430    -0.2230     0.8460 ha         1 3B9       0.121500
     52 H21         -5.7930    -2.2340     0.0080 ha         1 3B9       0.102500
     53 H22         -4.4950    -4.2480    -0.5710 ha         1 3B9       0.105000
     54 H23         -2.0420    -4.2510    -0.3210 ha         1 3B9       0.102500
     55 H24         -0.8840    -2.2420     0.5130 ha         1 3B9       0.121500
     56 N4          12.3030    -0.9380     0.3760 nv         1 3B9      -0.629500
@<TRIPOS>BOND
     1     1    21 ar  
     2     1    22 ar  
     3     1    32 1   
     4     2    11 ar  
     5     2    12 ar  
     6     2    56 1   
     7     3     6 ar  
     8     3    11 ar  
     9     3    14 1   
    10     4     6 ar  
    11     4    12 ar  
    12     4    13 ar  
    13     5     9 1   
    14     5    10 1   
    15     5    15 1   
    16     5    16 1   
    17     6     7 ar  
    18     7     8 ar  
    19     7    33 1   
    20     8     9 ar  
    21     8    34 1   
    22     9    13 ar  
    23    10    17 1   
    24    10    35 1   
    25    10    36 1   
    26    14    39 1   
    27    14    40 1   
    28    15    41 1   
    29    15    42 1   
    30    15    43 1   
    31    16    44 1   
    32    16    45 1   
    33    16    46 1   
    34    17    18 1   
    35    17    47 1   
    36    18    19 2   
    37    18    20 1   
    38    20    21 ar  
    39    20    24 ar  
    40    21    48 1   
    41    22    23 ar  
    42    22    25 1   
    43    23    24 ar  
    44    23    49 1   
    45    24    50 1   
    46    25    26 1   
    47    26    27 ar  
    48    26    31 ar  
    49    27    28 ar  
    50    27    51 1   
    51    28    29 ar  
    52    28    52 1   
    53    29    30 ar  
    54    29    53 1   
    55    30    31 ar  
    56    30    54 1   
    57    31    55 1   
    58    37    56 1   
    59    38    56 1   
@<TRIPOS>SUBSTRUCTURE
     1 3B9         1 TEMP              0 ****  ****    0 ROOT
