@<TRIPOS>MOLECULE
molecule
   49    51     1     0     0
SMALL
bcc


@<TRIPOS>ATOM
      1 N1           0.0000     0.0000     0.0000 nb         1 3BA      -0.695000
      2 C3           1.3450     0.0020     2.4350 ca         1 3BA       0.002000
      3 N2           4.0510    -0.0020    -0.0090 nb         1 3BA      -0.814000
      4 C4           1.3330     0.0000     0.0000 ca         1 3BA       0.813300
      5 C9           4.9600    -1.2530    -2.5340 c3         1 3BA      -0.077767
      6 C7           3.3450    -0.0030    -1.1260 ca         1 3BA       0.818300
      7 C6           3.4630    -0.0010     1.1810 ca         1 3BA       0.772200
      8 C5           2.0480     0.0000     1.2250 ca         1 3BA      -0.412600
      9 C10          4.9590     1.2460    -2.5350 c3         1 3BA      -0.077767
     10 C13          5.6690    -0.0010     2.2690 c3         1 3BA       0.228800
     11 C14          6.2470    -0.0010     3.6860 c3         1 3BA      -0.102700
     12 C15          7.7530    -0.0010     3.6140 cc         1 3BA       0.297600
     13 C16          9.7700    -0.5860     3.1140 cd         1 3BA       0.415400
     14 C17          8.5730     0.8910     4.2000 cd         1 3BA      -0.255600
     15 C1          -0.6900     0.0010     1.1240 ca         1 3BA       0.802200
     16 C2          -0.0460     0.0010     2.3820 ca         1 3BA      -0.408900
     17 N3           2.0320    -0.0020    -1.1450 nb         1 3BA      -0.760000
     18 N4          -2.0690     0.0010     1.0710 nv         1 3BA      -1.027500
     19 C11          3.0710    -0.0050    -3.5910 c3         1 3BA      -0.077767
     20 O1          -2.0490     0.1130     3.5730 o          1 3BA      -0.435100
     21 N5          -0.2230    -0.1150     4.8170 nz         1 3BA      -0.678400
     22 N6           4.2060    -0.0000     2.3390 nu         1 3BA      -0.875900
     23 N7           8.5110    -0.8940     2.9600 nc         1 3BA      -0.699000
     24 N8           9.8520     0.5220     3.8820 na         1 3BA      -0.289900
     25 H3           1.8520     0.2670     3.3550 ha         1 3BA       0.107000
     26 H9           5.3080    -1.3740    -3.5530 hc         1 3BA       0.048256
     27 H9A          4.3310    -2.0930    -2.2640 hc         1 3BA       0.048256
     28 H9B          5.8100    -1.2090    -1.8640 hc         1 3BA       0.048256
     29 H10          5.8080     1.1410    -1.8690 hc         1 3BA       0.048256
     30 H10A         4.3820     2.1170    -2.2510 hc         1 3BA       0.048256
     31 H10B         5.3110     1.3620    -3.5530 hc         1 3BA       0.048256
     32 H13          6.0060     0.8830     1.7420 h1         1 3BA       0.083700
     33 H13A         6.0050    -0.8860     1.7420 h1         1 3BA       0.083700
     34 H14          5.9110     0.8840     4.2120 hc         1 3BA       0.045700
     35 H14A         5.9110    -0.8850     4.2130 hc         1 3BA       0.045700
     36 H16         10.6090    -1.1300     2.6970 h5         1 3BA       0.076100
     37 H17          8.2780     1.7400     4.8050 h4         1 3BA       0.176000
     38 HN4         -2.5880    -0.7110     1.5440 hn         1 3BA       0.463300
     39 HN4A        -2.5500     0.7300     0.5810 hn         1 3BA       0.463300
     40 H11          3.6000    -0.0050    -4.5360 hc         1 3BA       0.048256
     41 H11A         2.4700     0.8930    -3.5140 hc         1 3BA       0.048256
     42 H11B         2.4290    -0.8760    -3.5360 hc         1 3BA       0.048256
     43 HN5          0.3440     0.6930     4.9830 hn         1 3BA       0.473133
     44 HN5A         0.3550    -0.9320     4.8120 hn         1 3BA       0.473133
     45 HN6          3.7480    -0.0470     3.2280 hn         1 3BA       0.429800
     46 HN8         10.6920     0.9860     4.1670 hn         1 3BA       0.309700
     47 C8           4.0810    -0.0040    -2.4410 c3         1 3BA      -0.106300
     48 C12         -0.8390     0.0040     3.6240 c          1 3BA       0.509700
     49 H53         -0.9120    -0.1930     5.5390 hn         1 3BA       0.473133
@<TRIPOS>BOND
     1     1     4 ar  
     2     1    15 ar  
     3     2     8 ar  
     4     2    16 ar  
     5     3     6 ar  
     6     3     7 ar  
     7     4     8 ar  
     8     4    17 ar  
     9     5    47 1   
    10    47     6 1   
    11    47     9 1   
    12    47    19 1   
    13     6    17 ar  
    14     7     8 ar  
    15     7    22 1   
    16    48    16 1   
    17    48    20 2   
    18    48    21 1   
    19    10    11 1   
    20    10    22 1   
    21    11    12 1   
    22    12    14 2   
    23    12    23 1   
    24    13    23 2   
    25    13    24 1   
    26    14    24 1   
    27    15    16 ar  
    28    15    18 1   
    29     2    25 1   
    30     5    26 1   
    31     5    27 1   
    32     5    28 1   
    33     9    29 1   
    34     9    30 1   
    35     9    31 1   
    36    10    32 1   
    37    10    33 1   
    38    11    34 1   
    39    11    35 1   
    40    13    36 1   
    41    14    37 1   
    42    18    38 1   
    43    18    39 1   
    44    19    40 1   
    45    19    41 1   
    46    19    42 1   
    47    21    43 1   
    48    21    44 1   
    49    22    45 1   
    50    24    46 1   
    51    49    21 1   
@<TRIPOS>SUBSTRUCTURE
     1 3BA         1 TEMP              0 ****  ****    0 ROOT
