@<TRIPOS>MOLECULE
3BA
   49    51     1     0     0
SMALL
bcc


@<TRIPOS>ATOM
      1 N1           0.0000     0.0000     0.0000 nb         1 3BA      -0.580000
      2 C3           1.3450     0.0020     2.4350 ca         1 3BA       0.026000
      3 N2           4.0510    -0.0020    -0.0090 nb         1 3BA      -0.705000
      4 C4           1.3330     0.0000     0.0000 ca         1 3BA       0.725300
      5 C9           4.9600    -1.2530    -2.5340 c3         1 3BA       0.012900
      6 C7           3.3450    -0.0030    -1.1260 ca         1 3BA       0.737300
      7 C6           3.4630    -0.0010     1.1810 ca         1 3BA       0.574200
      8 C5           2.0480     0.0000     1.2250 ca         1 3BA      -0.394600
      9 C10          4.9590     1.2460    -2.5350 c3         1 3BA       0.012900
     10 C13          5.6690    -0.0010     2.2690 c3         1 3BA       0.142800
     11 C14          6.2470    -0.0010     3.6860 c3         1 3BA      -0.025700
     12 C15          7.7530    -0.0010     3.6140 cc         1 3BA       0.271600
     13 C16          9.7700    -0.5860     3.1140 cd         1 3BA       0.224400
     14 C17          8.5730     0.8910     4.2000 cd         1 3BA      -0.428600
     15 C1          -0.6900     0.0010     1.1240 ca         1 3BA       0.599200
     16 C2          -0.0460     0.0010     2.3820 ca         1 3BA      -0.422900
     17 N3           2.0320    -0.0020    -1.1450 nb         1 3BA      -0.661000
     18 N4          -2.0690     0.0010     1.0710 nv         1 3BA      -0.548500
     19 C11          3.0710    -0.0050    -3.5910 c3         1 3BA       0.012900
     20 O1          -2.0490     0.1130     3.5730 o          1 3BA      -0.463100
     21 N5          -0.2230    -0.1150     4.8170 nz         1 3BA       0.199600
     22 N6           4.2060    -0.0000     2.3390 nu         1 3BA      -0.436900
     23 N7           8.5110    -0.8940     2.9600 nc         1 3BA      -0.612000
     24 N8           9.8520     0.5220     3.8820 na         1 3BA       0.264100
     25 H3           1.8520     0.2670     3.3550 ha         1 3BA       0.081000
     26 H9           5.3080    -1.3740    -3.5530 hc         1 3BA       0.013589
     27 H9A          4.3310    -2.0930    -2.2640 hc         1 3BA       0.013589
     28 H9B          5.8100    -1.2090    -1.8640 hc         1 3BA       0.013589
     29 H10          5.8080     1.1410    -1.8690 hc         1 3BA       0.013589
     30 H10A         4.3820     2.1170    -2.2510 hc         1 3BA       0.013589
     31 H10B         5.3110     1.3620    -3.5530 hc         1 3BA       0.013589
     32 H13          6.0060     0.8830     1.7420 h1         1 3BA       0.054200
     33 H13A         6.0050    -0.8860     1.7420 h1         1 3BA       0.054200
     34 H14          5.9110     0.8840     4.2120 hc         1 3BA       0.010700
     35 H14A         5.9110    -0.8850     4.2130 hc         1 3BA       0.010700
     36 H16         10.6090    -1.1300     2.6970 h5         1 3BA       0.031100
     37 H17          8.2780     1.7400     4.8050 h4         1 3BA       0.154000
     38 HN4         -2.5880    -0.7110     1.5440 hn         1 3BA       0.294800
     39 HN4A        -2.5500     0.7300     0.5810 hn         1 3BA       0.294800
     40 H11          3.6000    -0.0050    -4.5360 hc         1 3BA       0.013589
     41 H11A         2.4700     0.8930    -3.5140 hc         1 3BA       0.013589
     42 H11B         2.4290    -0.8760    -3.5360 hc         1 3BA       0.013589
     43 HN5          0.3440     0.6930     4.9830 hn         1 3BA       0.242133
     44 HN5A         0.3550    -0.9320     4.8120 hn         1 3BA       0.242133
     45 HN6          3.7480    -0.0470     3.2280 hn         1 3BA       0.275800
     46 HN8         10.6920     0.9860     4.1670 hn         1 3BA       0.128700
     47 C8           4.0810    -0.0040    -2.4410 c3         1 3BA      -0.125300
     48 C12         -0.8390     0.0040     3.6240 c          1 3BA       0.360700
     49 H53         -0.9120    -0.1930     5.5390 hn         1 3BA       0.242133
@<TRIPOS>BOND
     1     1     4 ar  
     2     1    15 ar  
     3     2     8 ar  
     4     2    16 ar  
     5     2    25 1   
     6     3     6 ar  
     7     3     7 ar  
     8     4     8 ar  
     9     4    17 ar  
    10     5    26 1   
    11     5    27 1   
    12     5    28 1   
    13     5    47 1   
    14     6    17 ar  
    15     6    47 1   
    16     7     8 ar  
    17     7    22 1   
    18     9    29 1   
    19     9    30 1   
    20     9    31 1   
    21     9    47 1   
    22    10    11 1   
    23    10    22 1   
    24    10    32 1   
    25    10    33 1   
    26    11    12 1   
    27    11    34 1   
    28    11    35 1   
    29    12    14 2   
    30    12    23 1   
    31    13    23 2   
    32    13    24 1   
    33    13    36 1   
    34    14    24 1   
    35    14    37 1   
    36    15    16 ar  
    37    15    18 1   
    38    16    48 1   
    39    18    38 1   
    40    18    39 1   
    41    19    40 1   
    42    19    41 1   
    43    19    42 1   
    44    19    47 1   
    45    20    48 2   
    46    21    43 1   
    47    21    44 1   
    48    21    48 1   
    49    21    49 1   
    50    22    45 1   
    51    24    46 1   
@<TRIPOS>SUBSTRUCTURE
     1 3BA         1 TEMP              0 ****  ****    0 ROOT
