@<TRIPOS>MOLECULE
3BB
   13    12     1     0     0
SMALL
bcc


@<TRIPOS>ATOM
      1 BR1         0.0980    0.3600    0.0410 br        1 3BB     -0.097700
      2 C1          2.5630   -0.1600   -1.2070 c2        1 3BB     -0.181000
      3 C2          1.9570    0.0650   -0.0400 c2        1 3BB     -0.067500
      4 C3          2.6880    0.0760    1.2540 c3        1 3BB     -0.047200
      5 C4          2.8000    1.4840    1.8240 c3        1 3BB      0.132400
      6 O5          3.6410    1.3910    2.9630 oh        1 3BB     -0.602800
      7 H11         2.0340   -0.1860   -2.1690 ha        1 3BB      0.129000
      8 H12         3.6470   -0.3380   -1.2680 ha        1 3BB      0.129000
      9 H31         2.1740   -0.5840    2.0030 hc        1 3BB      0.071200
     10 H32         3.7250   -0.3370    1.1130 hc        1 3BB      0.071200
     11 H41         3.2580    2.1800    1.0710 h1        1 3BB      0.030200
     12 H42         1.7910    1.8770    2.1200 h1        1 3BB      0.030200
     13 HO5         3.6590    2.2680    3.3630 ho        1 3BB      0.403000
@<TRIPOS>BOND
     1    1    3 1   
     2    2    3 2   
     3    2    7 1   
     4    2    8 1   
     5    3    4 1   
     6    4    5 1   
     7    4    9 1   
     8    4   10 1   
     9    5    6 1   
    10    5   11 1   
    11    5   12 1   
    12    6   13 1   
@<TRIPOS>SUBSTRUCTURE
     1 3BB         1 TEMP              0 ****  ****    0 ROOT
