@<TRIPOS>MOLECULE
molecule
   13    12     1     0     0
SMALL
bcc


@<TRIPOS>ATOM
      1 Br1          0.0000     0.0000     0.0000 br         1 3BB      -0.090700
      2 C1           2.5460    -0.0020    -1.1350 c2         1 3BB      -0.181000
      3 C2           1.8890     0.0000     0.0000 c2         1 3BB      -0.076500
      4 C3           2.6430     0.0000     1.3050 c3         1 3BB      -0.036200
      5 C4           2.8990     1.4420     1.7450 c3         1 3BB       0.143400
      6 O5           3.6150     1.4440     2.9820 oh         1 3BB      -0.612800
      7 H11          3.6290    -0.0020    -1.1340 ha         1 3BB       0.129500
      8 H12          2.0050    -0.0030    -2.0740 ha         1 3BB       0.129500
      9 H31          3.5890    -0.5110     1.1750 hc         1 3BB       0.069200
     10 H32          2.0570    -0.5100     2.0600 hc         1 3BB       0.069200
     11 H41          1.9530     1.9540     1.8750 h1         1 3BB       0.025700
     12 H42          3.4840     1.9520     0.9890 h1         1 3BB       0.025700
     13 HO5          3.7280     2.3320     3.2790 ho         1 3BB       0.405000
@<TRIPOS>BOND
     1     1     3 1   
     2     2     3 2   
     3     2     7 1   
     4     2     8 1   
     5     3     4 1   
     6     4     5 1   
     7     4     9 1   
     8     4    10 1   
     9     5     6 1   
    10     5    11 1   
    11     5    12 1   
    12     6    13 1   
@<TRIPOS>SUBSTRUCTURE
     1 3BB         1 TEMP              0 ****  ****    0 ROOT
