@<TRIPOS>MOLECULE
molecule
   56    59     1     0     0
SMALL
bcc


@<TRIPOS>ATOM
      1 C12          0.0000     0.0000     0.0000 c          1 3BD       0.529700
      2 C13         -5.5280     2.0490     3.1500 c3         1 3BD       0.097800
      3 C8          -4.3120     0.0840     6.4860 c3         1 3BD      -0.097300
      4 C9          -5.0900    -1.1530     6.9070 c3         1 3BD      -0.078433
      5 C10         -5.0570     1.3270     6.9370 c3         1 3BD      -0.078433
      6 C11         -2.9300     0.0580     7.1290 c3         1 3BD      -0.078433
      7 C14         -6.5190     1.8840     1.9910 c3         1 3BD       0.163800
      8 C15         -7.3240    -0.1680     2.9730 c3         1 3BD       0.163800
      9 O1           1.2170     0.0000     0.0000 o          1 3BD      -0.414100
     10 N3          -2.6260     0.0000     4.9070 nb         1 3BD      -0.693000
     11 C1           0.0000    -0.0000     2.4530 ca         1 3BD       0.725200
     12 C2          -0.7420    -0.0000     1.2850 ca         1 3BD      -0.326900
     13 C3          -2.0980    -0.0000     1.3440 ca         1 3BD       0.045000
     14 C4          -2.0090     0.0000     3.7170 ca         1 3BD       0.688300
     15 C7          -3.9850     0.0000     4.9710 ca         1 3BD       0.510300
     16 N1          -0.6260     0.0000     3.6540 nb         1 3BD      -0.665000
     17 N2          -4.7290    -0.0000     3.8280 nb         1 3BD      -0.166000
     18 C5          -2.7390    -0.0000     2.5780 ca         1 3BD      -0.348600
     19 C6          -4.1240    -0.0000     2.6470 ca         1 3BD       0.144200
     20 N5          -0.7270    -0.2230    -1.2410 nz         1 3BD      -0.709400
     21 N6          -5.1650     0.7730     3.7450 nh         1 3BD      -0.488300
     22 N7          -7.6870     1.1100     2.3770 nh         1 3BD      -0.684300
     23 C16         -6.3340    -0.0030     4.1310 c3         1 3BD       0.097800
     24 C17         -8.5960     0.9870     1.2290 ca         1 3BD       0.837900
     25 N8          -9.5340     1.9390     1.0080 nb         1 3BD      -0.730500
     26 C18        -10.3550     1.8340    -0.0230 ca         1 3BD       0.468200
     27 C19        -10.2590     0.7700    -0.8600 ca         1 3BD      -0.386600
     28 C20         -9.3200    -0.1830    -0.6380 ca         1 3BD       0.468200
     29 N9          -8.5000    -0.0750     0.3940 nb         1 3BD      -0.730500
     30 H13         -5.9790     2.6750     3.9100 h1         1 3BD       0.084450
     31 H13A        -4.6310     2.5300     2.7780 h1         1 3BD       0.084450
     32 H9          -6.1440    -1.0030     6.7050 hc         1 3BD       0.049144
     33 H9A         -4.9460    -1.3270     7.9660 hc         1 3BD       0.049144
     34 H9B         -4.7340    -2.0100     6.3480 hc         1 3BD       0.049144
     35 H10         -4.9790     1.4250     8.0130 hc         1 3BD       0.049144
     36 H10A        -4.6240     2.2000     6.4630 hc         1 3BD       0.049144
     37 H10B        -6.1000     1.2450     6.6570 hc         1 3BD       0.049144
     38 H11         -3.0330     0.0530     8.2070 hc         1 3BD       0.049144
     39 H11A        -2.4020    -0.8330     6.8120 hc         1 3BD       0.049144
     40 H11B        -2.3730     0.9350     6.8230 hc         1 3BD       0.049144
     41 H14         -6.0200     1.3810     1.1720 h1         1 3BD       0.066950
     42 H14A        -6.8420     2.8650     1.6640 h1         1 3BD       0.066950
     43 H15         -8.2210    -0.6480     3.3440 h1         1 3BD       0.066950
     44 H15A        -6.8730    -0.7930     2.2120 h1         1 3BD       0.066950
     45 H3          -2.6800    -0.0640     0.4320 ha         1 3BD       0.134000
     46 HN4          1.5090     1.4410     2.9210 hn         1 3BD       0.461300
     47 HN4A         1.3890     0.1510     4.0720 hn         1 3BD       0.461300
     48 HN5         -1.2600    -1.0670    -1.1680 hn         1 3BD       0.468800
     49 HN5A        -1.3440     0.5470    -1.4100 hn         1 3BD       0.468800
     50 H16         -6.8340     0.5000     4.9500 h1         1 3BD       0.084450
     51 H16A        -6.0120    -0.9840     4.4580 h1         1 3BD       0.084450
     52 H18        -11.1220     2.5820    -0.1830 h4         1 3BD       0.036600
     53 H19        -10.9010     0.7060    -1.7300 ha         1 3BD       0.153000
     54 H20         -9.2550    -1.0430    -1.2940 h4         1 3BD       0.036600
     55 H53         -0.0770    -0.3620    -1.9890 hn         1 3BD       0.468800
     56 N4           1.0860     0.5860     3.2230 nv         1 3BD      -1.000500
@<TRIPOS>BOND
     1     1     9 2   
     2     1    12 1   
     3     1    20 1   
     4     2     7 1   
     5     2    21 1   
     6     3     4 1   
     7     3     5 1   
     8     3     6 1   
     9     3    15 1   
    10     7    22 1   
    11     8    22 1   
    12     8    23 1   
    13    10    14 ar  
    14    10    15 ar  
    15    11    12 ar  
    16    11    16 ar  
    17    11    56 1   
    18    12    13 ar  
    19    13    18 ar  
    20    14    16 ar  
    21    14    18 ar  
    22    15    17 ar  
    23    17    19 ar  
    24    18    19 ar  
    25    19    21 1   
    26    21    23 1   
    27    22    24 1   
    28    24    25 ar  
    29    24    29 ar  
    30    25    26 ar  
    31    26    27 ar  
    32    27    28 ar  
    33    28    29 ar  
    34     2    30 1   
    35     2    31 1   
    36     4    32 1   
    37     4    33 1   
    38     4    34 1   
    39     5    35 1   
    40     5    36 1   
    41     5    37 1   
    42     6    38 1   
    43     6    39 1   
    44     6    40 1   
    45     7    41 1   
    46     7    42 1   
    47     8    43 1   
    48     8    44 1   
    49    13    45 1   
    50    56    46 1   
    51    56    47 1   
    52    20    48 1   
    53    20    49 1   
    54    23    50 1   
    55    23    51 1   
    56    26    52 1   
    57    27    53 1   
    58    28    54 1   
    59    55    20 1   
@<TRIPOS>SUBSTRUCTURE
     1 3BD         1 TEMP              0 ****  ****    0 ROOT
