@<TRIPOS>MOLECULE
3BE
   31    33     1     0     0
SMALL
bcc


@<TRIPOS>ATOM
      1 CAK          0.0000     0.0000     0.0000 ca         1 3BE      -0.014000
      2 CAP          1.3790     0.0000     0.0000 ca         1 3BE      -0.123000
      3 BrAD         2.3250    -0.0000    -1.6380 br         1 3BE       0.025000
      4 CAI          2.0750     0.0000     1.1980 ca         1 3BE      -0.056000
      5 CAH          1.3910     0.0000     2.4010 ca         1 3BE      -0.103000
      6 CAJ          0.0120    -0.0010     2.4140 ca         1 3BE      -0.076000
      7 CAU         -0.6950     0.0000     1.2110 ca         1 3BE      -0.140000
      8 CAO         -2.1730     0.0000     1.2180 c2         1 3BE       0.270000
      9 OAA         -2.7860     0.0010     0.1680 o          1 3BE      -0.350000
     10 NAN         -2.8410     0.0000     2.3880 ns         1 3BE       0.093000
     11 NAM         -4.2420     0.0000     2.3960 n2         1 3BE       0.048000
     12 CAG         -4.8860     0.0000     3.5230 c2         1 3BE      -0.465000
     13 CAT         -6.3590     0.0000     3.5310 c3         1 3BE      -0.170000
     14 CAL         -7.0550     0.0000     4.7430 c2         1 3BE       0.045000
     15 CAQ         -8.4330     0.0000     4.7460 c2         1 3BE      -0.212000
     16 BrAE        -9.3720     0.0000     6.3860 br         1 3BE       0.059000
     17 CAR         -9.1350     0.0010     3.5450 c2         1 3BE       0.190000
     18 OAB        -10.4940     0.0020     3.5560 oh         1 3BE      -0.238000
     19 CAV         -8.4530     0.0020     2.3360 c2         1 3BE      -0.275000
     20 BrAF        -9.4150     0.0050     0.7090 br         1 3BE       0.070000
     21 CAS         -7.0690     0.0070     2.3210 c2         1 3BE       0.151000
     22 OAC         -6.4010     0.0130     1.1390 oh         1 3BE      -0.184000
     23 HAK         -0.5430     0.0010    -0.9370 ha         1 3BE       0.141000
     24 HAI          3.1580     0.0000     1.1930 ha         1 3BE       0.117000
     25 HAH          1.9400    -0.0000     3.3350 ha         1 3BE       0.111000
     26 HAJ         -0.5220    -0.0010     3.3570 ha         1 3BE       0.107000
     27 HNAN        -2.3370     0.0030     3.2520 hn         1 3BE       0.089000
     28 HAG         -5.4990    -0.8740     3.3400 DU         1 3BE       0.321000
     29 HAL         -6.5110     0.0440     5.6790 ha         1 3BE       0.138000
     30 HOAB       -10.8080     0.8910     3.5230 ho         1 3BE       0.220000
     31 HOAC        -6.8850    -0.4850     0.5010 ho         1 3BE       0.212000
@<TRIPOS>BOND
     1     1     2 1   
     2     1     7 1   
     3     1    23 1   
     4     2     3 1   
     5     2     4 1   
     6     4     5 1   
     7     4    24 1   
     8     5     6 1   
     9     5    25 1   
    10     6     7 1   
    11     6    26 1   
    12     7     8 1   
    13     8     9 1   
    14     8    10 1   
    15    10    11 1   
    16    10    27 1   
    17    11    12 1   
    18    12    13 1   
    19    12    28 1   
    20    13    14 1   
    21    13    21 1   
    22    13    28 1   
    23    14    15 1   
    24    14    29 1   
    25    15    16 1   
    26    15    17 1   
    27    17    18 1   
    28    17    19 1   
    29    18    30 1   
    30    19    20 1   
    31    19    21 1   
    32    21    22 1   
    33    22    31 1   
@<TRIPOS>SUBSTRUCTURE
     1 3BE         1 TEMP              0 ****  ****    0 ROOT
