@<TRIPOS>MOLECULE
molecule
   31    32     1     0     0
SMALL
bcc


@<TRIPOS>ATOM
      1 CAK          0.0000     0.0000     0.0000 ca         1 3BE      -0.040000
      2 CAP          1.3790     0.0000     0.0000 ca         1 3BE      -0.029900
      3 BrAD         2.3250    -0.0000    -1.6380 br         1 3BE      -0.080100
      4 CAI          2.0750     0.0000     1.1980 ca         1 3BE      -0.079000
      5 CAH          1.3910     0.0000     2.4010 ca         1 3BE      -0.134000
      6 CAJ          0.0120    -0.0010     2.4140 ca         1 3BE      -0.098000
      7 CAU         -0.6950     0.0000     1.2110 ca         1 3BE      -0.145600
      8 CAO         -2.1730     0.0000     1.2180 c          1 3BE       0.691700
      9 OAA         -2.7860     0.0010     0.1680 o          1 3BE      -0.549100
     10 NAN         -2.8410     0.0000     2.3880 ns         1 3BE      -0.354900
     11 NAM         -4.2420     0.0000     2.3960 n2         1 3BE      -0.370300
     12 CAG         -4.8860     0.0000     3.5230 ce         1 3BE       0.375800
     13 CAT         -6.3590     0.0000     3.5310 ca         1 3BE      -0.156900
     14 CAL         -7.0550     0.0000     4.7430 ca         1 3BE      -0.039000
     15 CAQ         -8.4330     0.0000     4.7460 ca         1 3BE      -0.079900
     16 BrAE        -9.3720     0.0000     6.3860 br         1 3BE      -0.065100
     17 CAR         -9.1350     0.0010     3.5450 ca         1 3BE       0.193100
     18 OAB        -10.4940     0.0020     3.5560 oh         1 3BE      -0.501100
     19 CAV         -8.4530     0.0020     2.3360 ca         1 3BE      -0.135900
     20 BrAF        -9.4150     0.0050     0.7090 br         1 3BE      -0.057100
     21 CAS         -7.0690     0.0070     2.3210 ca         1 3BE       0.206100
     22 OAC         -6.4010     0.0130     1.1390 oh         1 3BE      -0.453100
     23 HAK         -0.5430     0.0010    -0.9370 ha         1 3BE       0.173000
     24 HAI          3.1580     0.0000     1.1930 ha         1 3BE       0.148000
     25 HAH          1.9400    -0.0000     3.3350 ha         1 3BE       0.141000
     26 HAJ         -0.5220    -0.0010     3.3570 ha         1 3BE       0.126000
     27 HNAN        -2.3370     0.0000     3.2520 hn         1 3BE       0.297500
     28 HAG         -4.3400     0.0000     4.4590 h4         1 3BE      -0.011200
     29 HAL         -6.5110     0.0400     5.6790 ha         1 3BE       0.154000
     30 HOAB       -10.8090    -0.8860     3.5210 ho         1 3BE       0.437000
     31 HOAC        -6.8150     0.6190     0.5470 ho         1 3BE       0.436000
@<TRIPOS>BOND
     1     1     2 ar  
     2     1     7 ar  
     3     2     3 1   
     4     2     4 ar  
     5     4     5 ar  
     6     5     6 ar  
     7     6     7 ar  
     8     7     8 1   
     9     8     9 2   
    10     8    10 1   
    11    10    11 1   
    12    11    12 2   
    13    12    13 1   
    14    13    14 ar  
    15    13    21 ar  
    16    14    15 ar  
    17    15    16 1   
    18    15    17 ar  
    19    17    18 1   
    20    17    19 ar  
    21    19    20 1   
    22    19    21 ar  
    23    21    22 1   
    24     1    23 1   
    25     4    24 1   
    26     5    25 1   
    27     6    26 1   
    28    10    27 1   
    29    12    28 1   
    30    14    29 1   
    31    18    30 1   
    32    22    31 1   
@<TRIPOS>SUBSTRUCTURE
     1 3BE         1 TEMP              0 ****  ****    0 ROOT
