@<TRIPOS>MOLECULE
3BF
   75    77     1     0     0
SMALL
bcc


@<TRIPOS>ATOM
      1 N2           0.0000     0.0000     0.0000 ns         1 3BF      -0.068400
      2 C4          -0.1450    -0.0120    -2.4570 cc         1 3BF      -0.427600
      3 N5          -1.1710    -0.0220    -3.3530 na         1 3BF       0.383100
      4 C6          -2.3320    -0.0220    -2.6330 cc         1 3BF       0.118000
      5 C7          -3.6940    -0.0320    -3.1950 c          1 3BF       0.523600
      6 C9          -6.0610    -0.0390    -2.9100 cc         1 3BF      -0.160400
      7 C10         -7.2220    -0.0330    -2.2010 cd         1 3BF      -0.345300
      8 C1'          1.3490     0.0000     0.0000 c          1 3BF       0.559100
      9 C1           2.1010     0.0000     1.3050 c3         1 3BF      -0.066100
     10 C3          -0.7020    -0.0060    -1.2150 cd         1 3BF       0.263200
     11 N6          -2.0280    -0.0110    -1.3510 nd         1 3BF      -0.628000
     12 O7          -3.8540    -0.0410    -4.4000 o          1 3BF      -0.685100
     13 N11         -8.2660    -0.0390    -3.0700 na         1 3BF       0.527900
     14 C13         -6.3940    -0.0500    -4.2710 cc         1 3BF      -0.133000
     15 C12         -7.7710    -0.0490    -4.3540 cd         1 3BF      -0.409900
     16 C14         -8.5640    -0.0590    -5.5860 c          1 3BF       0.632700
     17 O12         -9.7750     0.0400    -5.5310 o          1 3BF      -0.644100
     18 N14         -7.9510    -0.1780    -6.7820 ns         1 3BF      -0.052400
     19 C15         -8.6890    -0.0780    -7.9520 cc         1 3BF       0.423300
     20 S16         -8.0350    -0.2180    -9.5800 ss         1 3BF      -0.268300
     21 C17         -9.5910     0.0250   -10.2470 cc         1 3BF      -0.017700
     22 C20         -9.9150     0.0490   -11.7190 c3         1 3BF      -0.013400
     23 C21         -9.2340     1.2530   -12.3720 c3         1 3BF       0.007900
     24 C28         -9.4110    -1.2390   -12.3730 c3         1 3BF       0.007900
     25 N19         -9.9670     0.1260    -8.0160 nd         1 3BF      -0.574000
     26 C18        -10.4810     0.1910    -9.2490 cd         1 3BF       0.245800
     27 C22        -11.9140     0.4220    -9.4960 c          1 3BF       0.535600
     28 O22        -12.3510     0.3680   -10.6290 o          1 3BF      -0.648100
     29 N22        -12.7400     0.6930    -8.4660 ns         1 3BF      -0.201900
     30 C23        -14.1660     0.9220    -8.7120 c3         1 3BF       0.066000
     31 C24        -14.8740     1.2070    -7.3860 c3         1 3BF      -0.058400
     32 C25        -16.3630     1.4470    -7.6430 c3         1 3BF      -0.022200
     33 N26        -17.0410     1.7200    -6.3690 nx         1 3BF       0.035600
     34 C29        -18.4460     2.0670    -6.6280 c3         1 3BF       0.008600
     35 C27        -16.9820     0.5240    -5.5170 c3         1 3BF       0.008600
     36 H2          -0.5000     0.0030     0.8670 hn         1 3BF       0.168500
     37 H4           0.9130    -0.0090    -2.6890 h4         1 3BF       0.214000
     38 H8          -4.6300    -0.0240    -1.3810 hn         1 3BF       0.181500
     39 H10         -7.3010    -0.0260    -1.1200 h4         1 3BF       0.153000
     40 H111       -10.1670    -0.9110    -3.1150 h1         1 3BF       0.029033
     41 H112        -9.7760    -0.0480    -1.6220 h1         1 3BF       0.029033
     42 H113       -10.1560     0.8570    -3.0930 h1         1 3BF       0.029033
     43 H102         1.9500    -0.9470     1.8090 hc         1 3BF       0.026367
     44 H101         1.7370     0.8050     1.9320 hc         1 3BF       0.026367
     45 H103         3.1580     0.1420     1.1130 hc         1 3BF       0.026367
     46 H53         -1.5260     0.8540    -5.2200 h1         1 3BF       0.035367
     47 H51         -1.5380    -0.9150    -5.2100 h1         1 3BF       0.035367
     48 H52         -0.0050    -0.0400    -5.0900 h1         1 3BF       0.035367
     49 H13         -5.7000    -0.0570    -5.1030 ha         1 3BF       0.175000
     50 H14         -6.9700    -0.3680    -6.8240 hn         1 3BF       0.192500
     51 H20        -10.9880     0.1250   -11.8520 hc         1 3BF       0.101700
     52 H212        -9.5600     1.3380   -13.4020 hc         1 3BF       0.008533
     53 H211        -8.1600     1.1200   -12.3430 hc         1 3BF       0.008533
     54 H213        -9.5010     2.1550   -11.8340 hc         1 3BF       0.008533
     55 H283        -8.3280    -1.2580   -12.3450 hc         1 3BF       0.008533
     56 H281        -9.8010    -2.0940   -11.8350 hc         1 3BF       0.008533
     57 H282        -9.7460    -1.2770   -13.4030 hc         1 3BF       0.008533
     58 H22        -12.3730     0.7730    -7.5380 hn         1 3BF       0.207500
     59 H232       -14.6000     0.0420    -9.1710 h1         1 3BF       0.031700
     60 H231       -14.2860     1.7710    -9.3750 h1         1 3BF       0.031700
     61 H242       -14.7540     0.3580    -6.7230 hc         1 3BF       0.038200
     62 H241       -14.4400     2.0870    -6.9270 hc         1 3BF       0.038200
     63 H251       -16.4830     2.2960    -8.3050 hx         1 3BF       0.084200
     64 H252       -16.7970     0.5670    -8.1020 hx         1 3BF       0.084200
     65 H291       -18.4900     2.9310    -7.2800 hx         1 3BF       0.074367
     66 H293       -18.9440     1.2300    -7.1030 hx         1 3BF       0.074367
     67 H292       -18.9400     2.2960    -5.6910 hx         1 3BF       0.074367
     68 H273       -17.7690     0.5710    -4.7740 hx         1 3BF       0.074367
     69 H272       -16.0200     0.4810    -5.0210 hx         1 3BF       0.074367
     70 H271       -17.1140    -0.3610    -6.1270 hx         1 3BF       0.074367
     71 H26        -16.5880     2.4830    -5.9070 hn         1 3BF       0.257800
     72 C5          -1.0520    -0.0310    -4.8130 c3         1 3BF      -0.023400
     73 O1'          1.9540    -0.0010    -1.0500 o          1 3BF      -0.648100
     74 N8          -4.7620    -0.0290    -2.3730 ns         1 3BF       0.047900
     75 C11         -9.6840    -0.0350    -2.7010 c3         1 3BF      -0.030400
@<TRIPOS>BOND
     1     1     8 1   
     2     1    10 1   
     3     1    36 1   
     4     2     3 1   
     5     2    10 2   
     6     2    37 1   
     7     3     4 1   
     8     3    72 1   
     9     4     5 1   
    10     4    11 2   
    11     5    12 2   
    12     5    74 1   
    13     6     7 2   
    14     6    14 1   
    15     6    74 1   
    16     7    13 1   
    17     7    39 1   
    18     8     9 1   
    19     8    73 2   
    20     9    43 1   
    21     9    44 1   
    22     9    45 1   
    23    10    11 1   
    24    13    15 1   
    25    13    75 1   
    26    14    15 2   
    27    14    49 1   
    28    15    16 1   
    29    16    17 2   
    30    16    18 1   
    31    18    19 1   
    32    18    50 1   
    33    19    20 1   
    34    19    25 2   
    35    20    21 1   
    36    21    22 1   
    37    21    26 2   
    38    22    23 1   
    39    22    24 1   
    40    22    51 1   
    41    23    52 1   
    42    23    53 1   
    43    23    54 1   
    44    24    55 1   
    45    24    56 1   
    46    24    57 1   
    47    25    26 1   
    48    26    27 1   
    49    27    28 2   
    50    27    29 1   
    51    29    30 1   
    52    29    58 1   
    53    30    31 1   
    54    30    59 1   
    55    30    60 1   
    56    31    32 1   
    57    31    61 1   
    58    31    62 1   
    59    32    33 1   
    60    32    63 1   
    61    32    64 1   
    62    33    34 1   
    63    33    35 1   
    64    33    71 1   
    65    34    65 1   
    66    34    66 1   
    67    34    67 1   
    68    35    68 1   
    69    35    69 1   
    70    35    70 1   
    71    38    74 1   
    72    40    75 1   
    73    41    75 1   
    74    42    75 1   
    75    46    72 1   
    76    47    72 1   
    77    48    72 1   
@<TRIPOS>SUBSTRUCTURE
     1 3BF         1 TEMP              0 ****  ****    0 ROOT
