@<TRIPOS>MOLECULE
molecule
   75    77     1     0     0
SMALL
bcc


@<TRIPOS>ATOM
      1 N2           0.0000     0.0000     0.0000 ns         1 3BF      -0.529400
      2 C4          -0.1450    -0.0120    -2.4570 cc         1 3BF      -0.241600
      3 N5          -1.1710    -0.0220    -3.3530 na         1 3BF      -0.135900
      4 C6          -2.3320    -0.0220    -2.6330 cc         1 3BF       0.339000
      5 C7          -3.6940    -0.0320    -3.1950 c          1 3BF       0.625600
      6 C9          -6.0610    -0.0390    -2.9100 cd         1 3BF      -0.017400
      7 C10         -7.2220    -0.0330    -2.2010 cc         1 3BF      -0.165300
      8 C1'          1.3490     0.0000     0.0000 c          1 3BF       0.665100
      9 C1           2.1010     0.0000     1.3050 c3         1 3BF      -0.166100
     10 C3          -0.7020    -0.0060    -1.2150 cd         1 3BF       0.426200
     11 N6          -2.0280    -0.0110    -1.3510 nd         1 3BF      -0.711000
     12 O7          -3.8540    -0.0410    -4.4000 o          1 3BF      -0.627100
     13 N11         -8.2660    -0.0390    -3.0700 na         1 3BF      -0.004100
     14 C13         -6.3940    -0.0500    -4.2710 cd         1 3BF      -0.152000
     15 C12         -7.7710    -0.0490    -4.3540 cc         1 3BF      -0.204900
     16 C14         -8.5640    -0.0590    -5.5860 c          1 3BF       0.714700
     17 O12         -9.7750     0.0400    -5.5310 o          1 3BF      -0.587100
     18 N14         -7.9510    -0.1780    -6.7820 ns         1 3BF      -0.517400
     19 C15         -8.6890    -0.0780    -7.9520 cc         1 3BF       0.580300
     20 S16         -8.0350    -0.2180    -9.5800 ss         1 3BF      -0.156300
     21 C17         -9.5910     0.0250   -10.2470 cc         1 3BF      -0.078700
     22 C20         -9.9150     0.0490   -11.7190 c3         1 3BF      -0.027400
     23 C21         -9.2340     1.2530   -12.3720 c3         1 3BF      -0.086100
     24 C28         -9.4110    -1.2390   -12.3730 c3         1 3BF      -0.086100
     25 N19         -9.9670     0.1260    -8.0160 nd         1 3BF      -0.688000
     26 C18        -10.4810     0.1910    -9.2490 cd         1 3BF       0.297800
     27 C22        -11.9140     0.4220    -9.4960 c          1 3BF       0.617600
     28 O22        -12.3510     0.3680   -10.6290 o          1 3BF      -0.609100
     29 N22        -12.7400     0.6930    -8.4660 ns         1 3BF      -0.581900
     30 C23        -14.1660     0.9220    -8.7120 c3         1 3BF       0.127000
     31 C24        -14.8740     1.2070    -7.3860 c3         1 3BF      -0.131400
     32 C25        -16.3630     1.4470    -7.6430 c3         1 3BF       0.099800
     33 N26        -17.0410     1.7200    -6.3690 nx         1 3BF      -0.656400
     34 C29        -18.4460     2.0670    -6.6280 c3         1 3BF       0.088600
     35 C27        -16.9820     0.5240    -5.5170 c3         1 3BF       0.088600
     36 H2          -0.5000     0.0030     0.8670 hn         1 3BF       0.334500
     37 H4           0.9130    -0.0090    -2.6890 h4         1 3BF       0.230000
     38 H8          -4.6300    -0.0240    -1.3810 hn         1 3BF       0.347500
     39 H10         -7.3010    -0.0260    -1.1200 h4         1 3BF       0.175000
     40 H111       -10.1670    -0.9110    -3.1150 h1         1 3BF       0.057367
     41 H112        -9.7760    -0.0480    -1.6220 h1         1 3BF       0.057367
     42 H113       -10.1560     0.8570    -3.0930 h1         1 3BF       0.057367
     43 H102         1.9500    -0.9470     1.8090 hc         1 3BF       0.067033
     44 H101         1.7370     0.8050     1.9320 hc         1 3BF       0.067033
     45 H103         3.1580     0.1420     1.1130 hc         1 3BF       0.067033
     46 H53         -1.5260     0.8540    -5.2200 h1         1 3BF       0.064367
     47 H51         -1.5380    -0.9150    -5.2100 h1         1 3BF       0.064367
     48 H52         -0.0050    -0.0400    -5.0900 h1         1 3BF       0.064367
     49 H13         -5.7000    -0.0570    -5.1030 ha         1 3BF       0.189000
     50 H14         -6.9700    -0.3680    -6.8240 hn         1 3BF       0.353500
     51 H20        -10.9880     0.1250   -11.8520 hc         1 3BF       0.120700
     52 H212        -9.5600     1.3380   -13.4020 hc         1 3BF       0.040533
     53 H211        -8.1600     1.1200   -12.3430 hc         1 3BF       0.040533
     54 H213        -9.5010     2.1550   -11.8340 hc         1 3BF       0.040533
     55 H283        -8.3280    -1.2580   -12.3450 hc         1 3BF       0.040533
     56 H281        -9.8010    -2.0940   -11.8350 hc         1 3BF       0.040533
     57 H282        -9.7460    -1.2770   -13.4030 hc         1 3BF       0.040533
     58 H22        -12.3730     0.7730    -7.5380 hn         1 3BF       0.346500
     59 H232       -14.6000     0.0420    -9.1710 h1         1 3BF       0.060700
     60 H231       -14.2860     1.7710    -9.3750 h1         1 3BF       0.060700
     61 H242       -14.7540     0.3580    -6.7230 hc         1 3BF       0.069200
     62 H241       -14.4400     2.0870    -6.9270 hc         1 3BF       0.069200
     63 H251       -16.4830     2.2960    -8.3050 hx         1 3BF       0.108200
     64 H252       -16.7970     0.5670    -8.1020 hx         1 3BF       0.108200
     65 H291       -18.4900     2.9310    -7.2800 hx         1 3BF       0.102700
     66 H293       -18.9440     1.2300    -7.1030 hx         1 3BF       0.102700
     67 H292       -18.9400     2.2960    -5.6910 hx         1 3BF       0.102700
     68 H273       -17.7690     0.5710    -4.7740 hx         1 3BF       0.102700
     69 H272       -16.0200     0.4810    -5.0210 hx         1 3BF       0.102700
     70 H271       -17.1140    -0.3610    -6.1270 hx         1 3BF       0.102700
     71 H26        -16.5880     2.4830    -5.9070 hn         1 3BF       0.453800
     72 C5          -1.0520    -0.0310    -4.8130 c3         1 3BF       0.036600
     73 O1'          1.9540    -0.0010    -1.0500 o          1 3BF      -0.608100
     74 N8          -4.7620    -0.0290    -2.3730 ns         1 3BF      -0.428100
     75 C11         -9.6840    -0.0350    -2.7010 c3         1 3BF       0.040600
@<TRIPOS>BOND
     1    23    22 1   
     2    24    22 1   
     3    22    21 1   
     4    75    13 1   
     5    20    21 1   
     6    20    19 1   
     7    17    16 2   
     8    21    26 2   
     9    13     7 1   
    10    13    15 1   
    11    34    33 1   
    12    16    15 1   
    13    16    18 1   
    14    28    27 2   
    15    26    27 1   
    16    26    25 1   
    17    19    18 1   
    18    19    25 2   
    19     7     6 2   
    20    15    14 2   
    21    27    29 1   
    22    33    35 1   
    23    33    32 1   
    24     6    14 1   
    25     6    74 1   
    26    32    31 1   
    27    12     5 2   
    28    29    30 1   
    29    74     5 1   
    30     5     4 1   
    31    30    31 1   
    32    72     3 1   
    33     4     3 1   
    34     4    11 2   
    35     3     2 1   
    36    11    10 1   
    37     2    10 2   
    38    10     1 1   
    39     1     8 1   
    40    73     8 2   
    41     8     9 1   
    42     1    36 1   
    43     2    37 1   
    44    74    38 1   
    45     7    39 1   
    46    75    40 1   
    47    75    41 1   
    48    75    42 1   
    49     9    43 1   
    50     9    44 1   
    51     9    45 1   
    52    72    46 1   
    53    72    47 1   
    54    72    48 1   
    55    14    49 1   
    56    18    50 1   
    57    22    51 1   
    58    23    52 1   
    59    23    53 1   
    60    23    54 1   
    61    24    55 1   
    62    24    56 1   
    63    24    57 1   
    64    29    58 1   
    65    30    59 1   
    66    30    60 1   
    67    31    61 1   
    68    31    62 1   
    69    32    63 1   
    70    32    64 1   
    71    34    65 1   
    72    34    66 1   
    73    34    67 1   
    74    35    68 1   
    75    35    69 1   
    76    35    70 1   
    77    33    71 1   
@<TRIPOS>SUBSTRUCTURE
     1 3BF         1 TEMP              0 ****  ****    0 ROOT
