@<TRIPOS>MOLECULE
molecule
   34    36     1     0     0
SMALL
bcc


@<TRIPOS>ATOM
      1 O15          0.0000     0.0000     0.0000 oh         1 3BH      -0.555800
      2 C8           1.4280     0.0000     0.0000 c3         1 3BH       0.094100
      3 C14          1.9810     0.0000     1.4460 c3         1 3BH       0.090100
      4 O19          0.9870     0.4670     2.3600 oh         1 3BH      -0.564800
      5 C13          3.1710     0.9780     1.3970 c3         1 3BH       0.118100
      6 C18          4.4530     0.2610     1.8230 c3         1 3BH       0.141400
      7 O20          5.5270     1.2020     1.8860 oh         1 3BH      -0.589800
      8 O7           3.2930     1.4330     0.0390 os         1 3BH      -0.405600
      9 C3           1.9820     1.3360    -0.5590 c3         1 3BH       0.253800
     10 N1           2.0840     1.2810    -2.0200 na         1 3BH      -0.278000
     11 C2           1.2430     1.8980    -2.9180 ca         1 3BH       0.466800
     12 N6           0.1690     2.6710    -2.8140 nb         1 3BH      -0.770000
     13 C12         -0.4400     3.1240    -3.8910 ca         1 3BH       0.712900
     14 N16         -0.0230     2.8390    -5.1110 nb         1 3BH      -0.810000
     15 C11          1.0430     2.0730    -5.3130 ca         1 3BH       0.763200
     16 N17          1.4720     1.7790    -6.5970 nv         1 3BH      -1.011500
     17 C5           1.7250     1.5670    -4.1950 ca         1 3BH      -0.155200
     18 N9           2.8160     0.7790    -4.0210 nc         1 3BH      -0.659100
     19 C4           3.0340     0.6120    -2.7410 cd         1 3BH       0.678700
     20 N10          4.0650    -0.1290    -2.2000 nv         1 3BH      -0.964800
     21 HO15        -0.3140    -0.8280    -0.3230 ho         1 3BH       0.407000
     22 H8           1.8210    -0.8410    -0.5590 h1         1 3BH       0.056700
     23 H14          2.3200    -0.9920     1.7200 h1         1 3BH       0.043700
     24 HO19         0.9320    -0.1230     3.0940 ho         1 3BH       0.405000
     25 H13          2.9800     1.8220     2.0500 h1         1 3BH       0.092700
     26 H18          4.3080    -0.1870     2.7990 h1         1 3BH       0.026700
     27 H18A         4.6910    -0.5120     1.1020 h1         1 3BH       0.026700
     28 HO20         6.2240     0.8480     2.4130 ho         1 3BH       0.405000
     29 H3           1.3600     2.1650    -0.2440 h2         1 3BH       0.123700
     30 H12         -1.3140     3.7530    -3.7710 h5         1 3BH       0.060100
     31 HN17         2.4510     1.7160    -6.7960 hn         1 3BH       0.444800
     32 HN1A         0.8050     1.6690    -7.3350 hn         1 3BH       0.444800
     33 HN10         4.7100    -0.6030    -2.8020 hn         1 3BH       0.453800
     34 HN1B         4.1670    -0.1950    -1.2070 hn         1 3BH       0.453800
@<TRIPOS>BOND
     1     1     2 1
     2     2     3 1
     3     2     9 1
     4     3     4 1
     5     3     5 1
     6     5     6 1
     7     5     8 1
     8     6     7 1
     9     8     9 1
    10     9    10 1
    11    10    11 1
    12    10    19 1
    13    11    12 ar
    14    11    17 ar
    15    12    13 ar
    16    13    14 ar
    17    14    15 ar
    18    15    16 1
    19    15    17 ar
    20    17    18 1
    21    18    19 2
    22    19    20 1
    23     1    21 1
    24     2    22 1
    25     3    23 1
    26     4    24 1
    27     5    25 1
    28     6    26 1
    29     6    27 1
    30     7    28 1
    31     9    29 1
    32    13    30 1
    33    16    31 1
    34    16    32 1
    35    20    33 1
    36    20    34 1
@<TRIPOS>SUBSTRUCTURE
     1 3BH         1 TEMP              0 ****  ****    0 ROOT
