@<TRIPOS>MOLECULE
molecule
   70    72     1     0     0
SMALL
bcc


@<TRIPOS>ATOM
      1 N1           0.0000     0.0000     0.0000 nv         1 3BI      -1.058500
      2 C2           4.0830     0.0000     0.0000 ca         1 3BI       0.123000
      3 N3           3.9740     0.0070    -2.4740 nv         1 3BI      -1.061500
      4 C4           5.3210     0.0060     2.3790 ca         1 3BI       0.358900
      5 N5           4.0040     0.0050     2.3750 nb         1 3BI      -0.667000
      6 C6           7.5440     0.0030     1.2170 c3         1 3BI       0.204500
      7 C7           8.3090    -1.9550    -0.2050 c3         1 3BI       0.239100
      8 C9           8.1850    -2.3190     4.6520 ca         1 3BI      -0.049500
      9 C11          8.2410    -2.1280     2.2620 ca         1 3BI       0.181600
     10 C12          8.7080    -3.4360     2.1600 ca         1 3BI      -0.225000
     11 C13          8.9130    -4.1860     3.2960 ca         1 3BI      -0.049500
     12 C15          9.5410    -6.4940     6.8870 c3         1 3BI       0.003700
     13 C16          8.2460    -7.1410     7.3020 c          1 3BI       0.893600
     14 C            1.3820    -0.0010    -0.0060 ca         1 3BI       0.900900
     15 O            8.6450    -3.9500     6.8650 o          1 3BI      -0.654100
     16 N            2.0110     0.0030     1.1520 nb         1 3BI      -0.748000
     17 O1           8.2050    -7.9210     8.3940 o          1 3BI      -0.868300
     18 O2           7.2420    -6.9570     6.6550 o          1 3BI      -0.868300
     19 O8          13.2090    -9.1560     7.1060 o          1 3BI      -0.817500
     20 P           13.1760    -8.2110     5.9670 p5         1 3BI       1.010400
     21 O7          12.7790    -9.0020     4.6240 o          1 3BI      -0.817500
     22 C19         14.8130    -7.4370     5.7560 c3         1 3BI      -0.257600
     23 C20         15.8750    -8.5270     5.5980 c3         1 3BI      -0.111700
     24 C24         16.1490    -9.1590     6.9380 c          1 3BI       0.900600
     25 O6          15.5550    -8.7780     7.9190 o          1 3BI      -0.773800
     26 O5          17.0520   -10.1470     7.0420 o          1 3BI      -0.773800
     27 C21         17.1640    -7.9070     5.0540 c3         1 3BI      -0.039400
     28 C22         18.1850    -9.0130     4.7780 c3         1 3BI      -0.187400
     29 C23         19.4540    -8.4030     4.2430 c          1 3BI       0.895600
     30 O4          20.4960    -9.1890     3.9290 o          1 3BI      -0.902800
     31 O3          19.5350    -7.2070     4.0960 o          1 3BI      -0.902800
     32 C17         10.5840    -7.5770     6.6040 c3         1 3BI      -0.038400
     33 N7           9.3230    -5.6990     5.6750 ns         1 3BI      -0.502900
     34 C8           8.6530    -3.6320     4.5530 ca         1 3BI      -0.144600
     35 C10          7.9810    -1.5740     3.5120 ca         1 3BI      -0.225000
     36 N6           8.0350    -1.3740     1.1120 nh         1 3BI      -0.737000
     37 C3           6.0380     0.0020     1.1840 ca         1 3BI       0.246300
     38 N4           5.4120     0.0000     0.0260 nb         1 3BI      -0.645000
     39 C5           3.3490     0.0030     1.2120 ca         1 3BI       0.601000
     40 C1           3.3300     0.0040    -1.2560 ca         1 3BI       0.631900
     41 N2           2.0060     0.0030    -1.1800 nb         1 3BI      -0.785000
     42 HN1         -0.5000     0.8670     0.0030 hn         1 3BI       0.426800
     43 HN1A        -0.5010    -0.8660     0.0010 hn         1 3BI       0.426800
     44 HN3          4.1930     0.8750    -2.9220 hn         1 3BI       0.429300
     45 HN3A         4.1880    -0.8590    -2.9280 hn         1 3BI       0.429300
     46 H4           5.8530     0.0180     3.3220 h4         1 3BI       0.043100
     47 H6           7.9230     0.5860     0.3870 h1         1 3BI       0.053700
     48 H6A          7.8850     0.4380     2.1490 h1         1 3BI       0.053700
     49 H7           8.0940    -1.2230    -0.9740 h1         1 3BI       0.030033
     50 H7A          7.6830    -2.8270    -0.3520 h1         1 3BI       0.030033
     51 H9           7.9820    -1.8870     5.6250 ha         1 3BI       0.152500
     52 H12          8.9090    -3.8650     1.1850 ha         1 3BI       0.112000
     53 H13          9.2760    -5.2040     3.2160 ha         1 3BI       0.152500
     54 H15          9.8950    -5.8500     7.6820 h1         1 3BI       0.067700
     55 H19         15.0410    -6.8320     6.6250 hc         1 3BI       0.029700
     56 H19A        14.8040    -6.8100     4.8720 hc         1 3BI       0.029700
     57 H20         15.5180    -9.2820     4.9080 hc         1 3BI       0.068700
     58 H21         16.9490    -7.3770     4.1340 hc         1 3BI       0.021200
     59 H21A        17.5690    -7.2160     5.7830 hc         1 3BI       0.021200
     60 H22         17.7810    -9.7040     4.0480 hc         1 3BI       0.062200
     61 H22A        18.3990    -9.5440     5.6980 hc         1 3BI       0.062200
     62 H18         12.2460    -6.3300     7.1560 hc         1 3BI       0.024200
     63 H18A        11.8360    -6.2780     5.4350 hc         1 3BI       0.024200
     64 H17         10.6810    -8.2200     7.4710 hc         1 3BI       0.070700
     65 H17A        10.2710    -8.1660     5.7510 hc         1 3BI       0.070700
     66 HN7          9.4690    -6.1110     4.7740 hn         1 3BI       0.304500
     67 H10          7.6190    -0.5560     3.5880 ha         1 3BI       0.112000
     68 H7B          9.3510    -2.2450    -0.2620 h1         1 3BI       0.030033
     69 C14          8.8720    -4.4330     5.7720 c          1 3BI       0.660700
     70 C18         11.9330    -6.9200     6.3030 c3         1 3BI      -0.278600
@<TRIPOS>BOND
     1     1    14 1   
     2     1    42 1   
     3     1    43 1   
     4     2    38 ar  
     5     2    39 ar  
     6     2    40 ar  
     7     3    40 1   
     8     3    44 1   
     9     3    45 1   
    10     4     5 ar  
    11     4    37 ar  
    12     4    46 1   
    13     5    39 ar  
    14     6    36 1   
    15     6    37 1   
    16     6    47 1   
    17     6    48 1   
    18     7    36 1   
    19     7    49 1   
    20     7    50 1   
    21     8    34 ar  
    22     8    35 ar  
    23     8    51 1   
    24     9    10 ar  
    25     9    35 ar  
    26     9    36 1   
    27    10    11 ar  
    28    10    52 1   
    29    11    34 ar  
    30    11    53 1   
    31    69    15 2   
    32    69    33 1   
    33    69    34 1   
    34    12    13 1   
    35    12    32 1   
    36    12    33 1   
    37    12    54 1   
    38    13    17 1   
    39    13    18 1   
    40    14    16 ar  
    41    14    41 ar  
    42    16    39 ar  
    43    19    20 1   
    44    20    21 1   
    45    20    22 1   
    46    20    70 1   
    47    22    23 1   
    48    22    55 1   
    49    22    56 1   
    50    23    24 1   
    51    23    27 1   
    52    23    57 1   
    53    24    25 1   
    54    24    26 1   
    55    27    28 1   
    56    27    58 1   
    57    27    59 1   
    58    28    29 1   
    59    28    60 1   
    60    28    61 1   
    61    29    30 1   
    62    29    31 1   
    63    70    32 1   
    64    70    62 1   
    65    70    63 1   
    66    32    64 1   
    67    32    65 1   
    68    33    66 1   
    69    35    67 1   
    70    37    38 ar  
    71    40    41 ar  
    72     7    68 1   
@<TRIPOS>SUBSTRUCTURE
     1 3BI         1 TEMP              0 ****  ****    0 ROOT
