@<TRIPOS>MOLECULE
3BI
   75    71     1     0     0
SMALL
bcc


@<TRIPOS>ATOM
      1 N1         -0.2520   -2.7220    0.6690 nh        1 3BI     -0.323000
      2 C2          3.8310   -2.0900    1.2510 c2        1 3BI     -0.072000
      3 N3          3.8540   -1.4650   -1.1720 n4        1 3BI      0.057000
      4 C4          3.5790   -2.3370    4.7840 c1        1 3BI      0.217000
      5 N5          3.3070   -2.1880    3.6370 n2        1 3BI     -0.356000
      6 C6          7.3950   -1.4940    2.5170 c3        1 3BI     -0.092000
      7 C7          5.8500   -3.3840    0.7600 c3        1 3BI     -0.146000
      8 C9         10.9430    0.0060    3.3770 c2        1 3BI     -0.090000
      9 C11         9.4080   -0.7330    1.3640 c3        1 3BI      0.158000
     10 C12        10.2450   -0.9660    0.1390 c2        1 3BI     -0.520000
     11 C13        11.4630   -1.4610    0.0850 c1        1 3BI      0.269000
     12 C15         8.9520   -5.5390    4.9440 cu        1 3BI     -0.104000
     13 C16         7.9610   -5.0200    4.0930 cu        1 3BI      0.375000
     14 C           1.1240   -2.4210    0.7620 c2        1 3BI      0.148000
     15 O          10.3060   -2.1800    3.1500 os        1 3BI     -0.141000
     16 N           1.5620   -1.7840    2.0070 na        1 3BI     -0.242000
     17 O1          6.9460   -4.5810    3.5970 o         1 3BI     -0.299000
     18 O2          9.2490   -5.1290    3.5890 os        1 3BI     -0.246000
     19 O8         12.7860   -5.5240    5.0060 o         1 3BI     -1.197000
     20 P          14.0520   -6.1320    4.5770 p5        1 3BI      2.844000
     21 O7         13.7320   -6.8060    3.1520 oh        1 3BI     -0.839000
     22 C19        14.7480   -7.2310    5.4970 c2        1 3BI     -1.026000
     23 C20        15.4390   -8.2720    5.0190 c2        1 3BI      0.064000
     24 C24        15.4630   -7.6500   10.0340 c1        1 3BI      0.419000
     25 O6         15.2790   -7.7150    8.8580 o         1 3BI     -0.209000
     26 O5         15.6430   -7.5840   11.2050 o         1 3BI     -0.209000
     27 C21        16.0960   -9.2990    5.8400 c3        1 3BI     -0.241000
     28 C22        15.2260  -12.7310    5.0590 c1        1 3BI      0.185500
     29 C23        17.5740  -12.5480    4.6560 c1        1 3BI      0.185500
     30 O4         14.6160  -13.7260    4.9790 o         1 3BI     -0.185000
     31 O3         18.0940  -11.5030    4.7690 o         1 3BI     -0.185000
     32 C17         9.6650   -5.9920    5.9540 c2        1 3BI     -0.038000
     33 N7         11.2070   -3.1830    5.0960 nh        1 3BI     -0.287000
     34 C8         11.5100   -0.7340    4.4690 c2        1 3BI     -0.291000
     35 C10        10.2230   -0.8820    2.6040 c2        1 3BI     -0.207000
     36 N6          8.2030   -1.5710    1.3190 n3        1 3BI     -0.309000
     37 C3          5.9170   -1.4270    2.2140 c2        1 3BI      0.072000
     38 N4          5.2420   -2.2540    1.4530 nh        1 3BI      0.017000
     39 C5          2.9290   -2.0060    2.3180 c2        1 3BI      0.148000
     40 C1          3.2970   -2.2680   -0.0860 c2        1 3BI     -0.424000
     41 N2          1.9640   -2.6770   -0.2360 n2        1 3BI     -0.176000
     42 HN1         0.9270   -1.8570    2.7780 hn        1 3BI      0.219000
     43 HN1A       -0.5270   -3.1290   -0.2010 hn        1 3BI      0.211000
     44 HN3         3.7320   -0.4540   -1.0410 hn        1 3BI      0.212000
     45 HN3A        3.4000   -1.7390   -2.0490 hn        1 3BI      0.212000
     46 H4          5.3600   -0.6020    2.7160 h4        1 3BI      0.190000
     47 H6          7.6510   -0.5680    3.1110 h1        1 3BI      0.144500
     48 H6A         7.5500   -2.3850    3.2050 h1        1 3BI      0.144500
     49 H7          6.4410   -3.0170   -0.1200 h1        1 3BI      0.142000
     50 H7A         6.5250   -3.9330    1.4760 h1        1 3BI      0.142000
     51 H9          9.0560    0.3470    1.3370 h1        1 3BI      0.117000
     52 H12         9.7690   -0.6480   -0.8110 ha        1 3BI      0.193000
     53 H13        12.1330   -0.3330    5.2620 ha        1 3BI      0.172000
     54 H15        12.0490   -3.2170    5.6360 hn        1 3BI      0.225500
     55 H19        16.6860   -3.6240    3.7760 ha        1 3BI      0.000000
     56 H19A       14.6530   -7.1260    6.5960 ha        1 3BI      0.192000
     57 H20        17.1630   -3.1760    3.6060 ha        1 3BI      0.000000
     58 H21        15.9520   -9.1140    6.9350 hc        1 3BI      0.114000
     59 H21A       15.5320   -8.3970    3.9210 ha        1 3BI      0.136000
     60 H22        15.6900  -10.3140    5.5870 hc        1 3BI      0.114000
     61 H22A       17.1960   -9.3150    5.6200 hc        1 3BI      0.114000
     62 H18        14.9730   -5.2850    4.3010 hp        1 3BI     -0.550000
     63 H18A        9.3140   -7.4030    7.5080 hc        1 3BI      0.102000
     64 H17         7.9940   -6.1710    7.3180 hc        1 3BI      0.102000
     65 H17A        9.5820   -5.6950    8.0580 hc        1 3BI      0.102000
     66 HN7        10.7650   -6.1140    5.8220 ha        1 3BI      0.208000
     67 H10        11.0720    1.0730    3.2050 ha        1 3BI      0.164000
     68 H28        12.8480   -6.6810    2.8160 ho        1 3BI      0.279000
     69 H7B         5.0380   -4.0740    0.3980 h1        1 3BI      0.142000
     70 C14        11.1000   -2.0630    4.3100 c2        1 3BI      0.123000
     71 C18         9.0990   -6.3300    7.2720 c3        1 3BI     -0.198000
     72 H131       -0.6430   -3.1790    1.4640 hn        1 3BI      0.211000
     73 H33         4.8490   -1.6740   -1.2370 hn        1 3BI      0.212000
     74 H72        11.0360   -4.0540    4.6260 hn        1 3BI      0.225500
     75 H61         8.4630   -2.5260    1.1380 hn        1 3BI      0.178000
@<TRIPOS>BOND
     1    1   14 1   
     2    1   43 1   
     3    1   72 1   
     4    2   38 1   
     5    2   39 1   
     6    2   40 1   
     7    3   40 1   
     8    3   44 1   
     9    3   45 1   
    10    3   73 1   
    11    4    5 1   
    12    5   39 1   
    13    6   36 1   
    14    6   37 1   
    15    6   47 1   
    16    6   48 1   
    17    7   38 1   
    18    7   49 1   
    19    7   50 1   
    20    7   69 1   
    21    8   34 1   
    22    8   35 1   
    23    8   67 1   
    24    9   10 1   
    25    9   35 1   
    26    9   36 1   
    27    9   51 1   
    28   10   11 1   
    29   10   52 1   
    30   12   13 1   
    31   12   18 1   
    32   12   32 1   
    33   13   17 1   
    34   13   18 1   
    35   14   16 1   
    36   14   41 1   
    37   15   35 1   
    38   15   70 1   
    39   16   39 1   
    40   16   42 1   
    41   19   20 1   
    42   20   21 1   
    43   20   22 1   
    44   20   62 1   
    45   21   68 1   
    46   22   23 1   
    47   22   56 1   
    48   23   27 1   
    49   23   59 1   
    50   24   25 1   
    51   24   26 1   
    52   27   58 1   
    53   27   60 1   
    54   27   61 1   
    55   28   30 1   
    56   29   31 1   
    57   32   66 1   
    58   32   71 1   
    59   33   54 1   
    60   33   70 1   
    61   33   74 1   
    62   34   53 1   
    63   34   70 1   
    64   36   75 1   
    65   37   38 1   
    66   37   46 1   
    67   40   41 1   
    68   55   57 1   
    69   63   71 1   
    70   64   71 1   
    71   65   71 1   
@<TRIPOS>SUBSTRUCTURE
     1 3BI         1 TEMP              0 ****  ****    0 ROOT
