@<TRIPOS>MOLECULE
3BJ
   52    56     1     0     0
SMALL
bcc


@<TRIPOS>ATOM
      1 C1           0.0000     0.0000     0.0000 ca         1 3BJ      -0.271200
      2 C3           0.0140     0.0020     2.4200 ca         1 3BJ      -0.033000
      3 C4           1.3800     0.0010     2.4010 ca         1 3BJ      -0.118000
      4 C5           2.0710     0.0000     1.1980 ca         1 3BJ      -0.082000
      5 C6           1.3880     0.0000     0.0000 ca         1 3BJ      -0.089000
      6 N7          -0.9610    -0.0060    -0.9910 na         1 3BJ       0.278700
      7 C8          -2.1760    -0.0080    -0.3770 cc         1 3BJ       0.162800
      8 C12         -5.1900    -1.6500    -1.8320 ca         1 3BJ       0.793900
      9 C14         -6.7860    -3.1500    -2.5450 ca         1 3BJ       0.812900
     10 C16         -7.0690    -0.8970    -2.9300 ca         1 3BJ       0.788900
     11 C19         -7.3370    -5.0890    -1.3390 c3         1 3BJ       0.101800
     12 C10         -3.5020    -0.0150    -1.0900 c3         1 3BJ       0.178500
     13 C20         -7.7860    -6.5410    -1.5150 c3         1 3BJ       0.210400
     14 C22         -8.9720    -5.9530    -3.5130 c3         1 3BJ       0.210400
     15 C23         -8.5340    -4.4940    -3.3560 c3         1 3BJ       0.101800
     16 C25         -7.4200     1.4690    -3.2210 ca         1 3BJ       0.009600
     17 C26         -6.6360     1.7840    -2.1190 ca         1 3BJ      -0.117000
     18 C27         -6.2400     3.0900    -1.9060 ca         1 3BJ      -0.078000
     19 C28         -6.6250     4.0840    -2.7890 ca         1 3BJ      -0.049600
     20 C30         -7.8050     2.4680    -4.1060 ca         1 3BJ      -0.071600
     21 C29         -7.4070     3.7740    -3.8880 ca         1 3BJ      -0.075000
     22 Cl1         -6.1250     5.7240    -2.5170 cl         1 3BJ      -0.022400
     23 N24         -7.8170     0.1440    -3.4430 nu         1 3BJ      -0.267300
     24 N17         -5.9110    -0.6480    -2.3270 nb         1 3BJ      -0.833000
     25 N13         -5.6280    -2.9010    -1.9420 nb         1 3BJ      -0.799000
     26 N18         -7.2410    -4.4480    -2.6590 nh         1 3BJ      -0.436300
     27 O21         -9.0300    -6.5690    -2.2230 os         1 3BJ      -0.411600
     28 N15         -7.5060    -2.1470    -3.0390 nb         1 3BJ      -0.826000
     29 N11         -3.9850    -1.3930    -1.2110 nu         1 3BJ      -0.463900
     30 C2          -0.7000     0.0010     1.2190 ca         1 3BJ       0.057400
     31 N9          -2.0230    -0.0040     0.9150 nd         1 3BJ      -0.493100
     32 H1          -0.5150     0.0020     3.3650 ha         1 3BJ       0.111000
     33 H2           1.9290     0.0010     3.3350 ha         1 3BJ       0.106000
     34 H3           3.1540    -0.0010     1.2000 ha         1 3BJ       0.104000
     35 H4           1.9330    -0.0010    -0.9370 ha         1 3BJ       0.102000
     36 H5          -0.7980     0.1210    -1.9700 hn         1 3BJ       0.129700
     37 H6          -6.3680    -5.0670    -0.8560 h1         1 3BJ       0.035700
     38 H7          -8.0620    -4.5580    -0.7330 h1         1 3BJ       0.035700
     39 H8          -4.2180     0.5700    -0.5260 h1         1 3BJ       0.034700
     40 H9          -3.3830     0.4130    -2.0780 h1         1 3BJ       0.034700
     41 H10         -7.9150    -7.0000    -0.5420 h1         1 3BJ       0.014950
     42 H11         -7.0380    -7.0840    -2.0810 h1         1 3BJ       0.014950
     43 H12         -9.9520    -5.9880    -3.9730 h1         1 3BJ       0.014950
     44 H13         -8.2560    -6.4790    -4.1320 h1         1 3BJ       0.014950
     45 H14         -9.2750    -3.9550    -2.7780 h1         1 3BJ       0.035700
     46 H15         -8.4330    -4.0410    -4.3350 h1         1 3BJ       0.035700
     47 H16         -6.3340     1.0060    -1.4280 ha         1 3BJ       0.163000
     48 H17         -5.6280     3.3360    -1.0460 ha         1 3BJ       0.116000
     49 H18         -7.7060     4.5540    -4.5770 ha         1 3BJ       0.126000
     50 H19         -8.6530    -0.0480    -3.9600 hn         1 3BJ       0.302800
     51 H20         -3.4410    -2.1480    -0.8430 hn         1 3BJ       0.310800
     52 Cl2         -8.7850     2.0790    -5.4850 cl         1 3BJ      -0.016400
@<TRIPOS>BOND
     1     1     5 ar  
     2     1     6 1   
     3     1    30 ar  
     4     2     3 ar  
     5     2    30 ar  
     6     2    32 1   
     7     3     4 ar  
     8     3    33 1   
     9     4     5 ar  
    10     4    34 1   
    11     5    35 1   
    12     6     7 1   
    13     6    36 1   
    14     7    12 1   
    15     7    31 2   
    16     8    24 ar  
    17     8    25 ar  
    18     8    29 1   
    19     9    25 ar  
    20     9    26 1   
    21     9    28 ar  
    22    10    23 1   
    23    10    24 ar  
    24    10    28 ar  
    25    11    13 1   
    26    11    26 1   
    27    11    37 1   
    28    11    38 1   
    29    12    29 1   
    30    12    39 1   
    31    12    40 1   
    32    13    27 1   
    33    13    41 1   
    34    13    42 1   
    35    14    15 1   
    36    14    27 1   
    37    14    43 1   
    38    14    44 1   
    39    15    26 1   
    40    15    45 1   
    41    15    46 1   
    42    16    17 ar  
    43    16    20 ar  
    44    16    23 1   
    45    17    18 ar  
    46    17    47 1   
    47    18    19 ar  
    48    18    48 1   
    49    19    21 ar  
    50    19    22 1   
    51    20    21 ar  
    52    20    52 1   
    53    21    49 1   
    54    23    50 1   
    55    29    51 1   
    56    30    31 1   
@<TRIPOS>SUBSTRUCTURE
     1 3BJ         1 TEMP              0 ****  ****    0 ROOT
