@<TRIPOS>MOLECULE
molecule
   52    56     1     0     0
SMALL
bcc


@<TRIPOS>ATOM
      1 C1           0.0000     0.0000     0.0000 ca         1 3BJ      -0.087200
      2 C3           0.0140     0.0020     2.4200 ca         1 3BJ      -0.064000
      3 C4           1.3800     0.0010     2.4010 ca         1 3BJ      -0.146000
      4 C5           2.0710     0.0000     1.1980 ca         1 3BJ      -0.106000
      5 C6           1.3880     0.0000     0.0000 ca         1 3BJ      -0.130000
      6 N7          -0.9610    -0.0060    -0.9910 na         1 3BJ      -0.256300
      7 C8          -2.1760    -0.0080    -0.3770 cc         1 3BJ       0.382800
      8 C12         -5.1900    -1.6500    -1.8320 ca         1 3BJ       1.010900
      9 C14         -6.7860    -3.1500    -2.5450 ca         1 3BJ       0.965900
     10 C16         -7.0690    -0.8970    -2.9300 ca         1 3BJ       1.010900
     11 C19         -7.3370    -5.0890    -1.3390 c3         1 3BJ       0.137300
     12 C10         -3.5020    -0.0150    -1.0900 c3         1 3BJ       0.250500
     13 C20         -7.7860    -6.5410    -1.5150 c3         1 3BJ       0.133900
     14 C22         -8.9720    -5.9530    -3.5130 c3         1 3BJ       0.133900
     15 C23         -8.5340    -4.4940    -3.3560 c3         1 3BJ       0.137300
     16 C25         -7.4200     1.4690    -3.2210 ca         1 3BJ       0.173600
     17 C26         -6.6360     1.7840    -2.1190 ca         1 3BJ      -0.127000
     18 C27         -6.2400     3.0900    -1.9060 ca         1 3BJ      -0.106000
     19 C28         -6.6250     4.0840    -2.7890 ca         1 3BJ       0.010400
     20 C30         -7.8050     2.4680    -4.1060 ca         1 3BJ      -0.010600
     21 C29         -7.4070     3.7740    -3.8880 ca         1 3BJ      -0.096000
     22 Cl1         -6.1250     5.7240    -2.5170 cl         1 3BJ      -0.102400
     23 N24         -7.8170     0.1440    -3.4430 nu         1 3BJ      -0.740300
     24 N17         -5.9110    -0.6480    -2.3270 nb         1 3BJ      -0.923000
     25 N13         -5.6280    -2.9010    -1.9420 nb         1 3BJ      -0.886000
     26 N18         -7.2410    -4.4480    -2.6590 nh         1 3BJ      -0.678300
     27 O21         -9.0300    -6.5690    -2.2230 os         1 3BJ      -0.424600
     28 N15         -7.5060    -2.1470    -3.0390 nb         1 3BJ      -0.913000
     29 N11         -3.9850    -1.3930    -1.2110 nu         1 3BJ      -0.887900
     30 C2          -0.7000     0.0010     1.2190 ca         1 3BJ       0.085400
     31 N9          -2.0230    -0.0040     0.9150 nd         1 3BJ      -0.582100
     32 H1          -0.5150     0.0020     3.3650 ha         1 3BJ       0.144000
     33 H2           1.9290     0.0010     3.3350 ha         1 3BJ       0.136000
     34 H3           3.1540    -0.0010     1.2000 ha         1 3BJ       0.135000
     35 H4           1.9330    -0.0010    -0.9370 ha         1 3BJ       0.129000
     36 H5          -0.7980     0.1210    -1.9700 hn         1 3BJ       0.306700
     37 H6          -6.3680    -5.0670    -0.8560 h1         1 3BJ       0.064950
     38 H7          -8.0620    -4.5580    -0.7330 h1         1 3BJ       0.064950
     39 H8          -4.2180     0.5700    -0.5260 h1         1 3BJ       0.071700
     40 H9          -3.3830     0.4130    -2.0780 h1         1 3BJ       0.071700
     41 H10         -7.9150    -7.0000    -0.5420 h1         1 3BJ       0.057950
     42 H11         -7.0380    -7.0840    -2.0810 h1         1 3BJ       0.057950
     43 H12         -9.9520    -5.9880    -3.9730 h1         1 3BJ       0.057950
     44 H13         -8.2560    -6.4790    -4.1320 h1         1 3BJ       0.057950
     45 H14         -9.2750    -3.9550    -2.7780 h1         1 3BJ       0.064950
     46 H15         -8.4330    -4.0410    -4.3350 h1         1 3BJ       0.064950
     47 H16         -6.3340     1.0060    -1.4280 ha         1 3BJ       0.187000
     48 H17         -5.6280     3.3360    -1.0460 ha         1 3BJ       0.150000
     49 H18         -7.7060     4.5540    -4.5770 ha         1 3BJ       0.159000
     50 H19         -8.6530    -0.0480    -3.9600 hn         1 3BJ       0.479800
     51 H20         -3.4410    -2.1480    -0.8430 hn         1 3BJ       0.472800
     52 Cl2         -8.7850     2.0790    -5.4850 cl         1 3BJ      -0.100400
@<TRIPOS>BOND
     1    12    29 1   
     2    12     7 1   
     3    29     8 1   
     4     8    25 ar  
     5     8    24 ar  
     6     7     6 1   
     7     7    31 2   
     8    25     9 ar  
     9    24    10 ar  
    10    17    18 ar  
    11    17    16 ar  
    12    15    14 1   
    13    15    26 1   
    14    18    19 ar  
    15     6     1 1   
    16    14    27 1   
    17    31    30 1   
    18     9    26 1   
    19     9    28 ar  
    20    27    13 1   
    21    10    28 ar  
    22    10    23 1   
    23    26    11 1   
    24    23    16 1   
    25    16    20 ar  
    26     1    30 ar  
    27     1     5 ar  
    28    19    22 1   
    29    19    21 ar  
    30    30     2 ar  
    31    11    13 1   
    32     5     4 ar  
    33    20    21 ar  
    34    20    52 1   
    35     2     3 ar  
    36     4     3 ar  
    37     2    32 1   
    38     3    33 1   
    39     4    34 1   
    40     5    35 1   
    41     6    36 1   
    42    11    37 1   
    43    11    38 1   
    44    12    39 1   
    45    12    40 1   
    46    13    41 1   
    47    13    42 1   
    48    14    43 1   
    49    14    44 1   
    50    15    45 1   
    51    15    46 1   
    52    17    47 1   
    53    18    48 1   
    54    21    49 1   
    55    23    50 1   
    56    29    51 1   
@<TRIPOS>SUBSTRUCTURE
     1 3BJ         1 TEMP              0 ****  ****    0 ROOT
