@<TRIPOS>MOLECULE
3BK
   47    50     1     0     0
SMALL
bcc


@<TRIPOS>ATOM
      1 C18          0.0000     0.0000     0.0000 ca         1 3BK      -0.072000
      2 C19          1.3830     0.0000     0.0000 ca         1 3BK      -0.043600
      3 Cl28         2.2510     0.0010    -1.5030 cl         1 3BK       0.003600
      4 C20          2.0740     0.0000     1.1990 ca         1 3BK      -0.033600
      5 Cl29         3.8100     0.0010     1.2000 cl         1 3BK       0.001600
      6 C21          1.3820     0.0010     2.3960 ca         1 3BK      -0.091000
      7 C22         -0.0000     0.0000     2.3950 ca         1 3BK      -0.072000
      8 C17         -0.6910    -0.0000     1.1980 ca         1 3BK      -0.116300
      9 C16         -2.1980    -0.0000     1.1980 c3         1 3BK       0.243100
     10 N15         -2.6860    -1.3820     1.1980 nu         1 3BK      -0.473200
     11 C6          -4.0430    -1.6350     1.1980 cc         1 3BK       0.346700
     12 N7          -4.9800    -0.7200     1.1980 nd         1 3BK      -0.583100
     13 C8          -6.1970    -1.3190     1.1960 ca         1 3BK      -0.203200
     14 C4          -7.5220    -0.8580     1.1950 ca         1 3BK       0.575200
     15 N27         -7.8010     0.4990     1.1950 nv         1 3BK      -0.493500
     16 N1          -8.5050    -1.7530     1.1950 nb         1 3BK      -0.735000
     17 C2          -8.2500    -3.0490     1.1950 ca         1 3BK       0.668900
     18 N3          -7.0230    -3.5270     1.1970 nb         1 3BK      -0.666000
     19 C9          -5.9770    -2.7070     1.1970 ca         1 3BK       0.272800
     20 N5          -4.6110    -2.8790     1.1930 na         1 3BK       0.174000
     21 C10         -3.8990    -4.1580     1.1850 c3         1 3BK       0.147800
     22 O11         -4.5120    -5.0700     0.2490 os         1 3BK      -0.357600
     23 C12         -4.0870    -6.3860     0.6660 c3         1 3BK       0.154100
     24 C23         -5.0330    -7.4530     0.1120 c3         1 3BK       0.224400
     25 O26         -4.9220    -7.4960    -1.3110 oh         1 3BK      -0.579800
     26 C13         -4.1560    -6.3540     2.2090 c3         1 3BK       0.137100
     27 O25         -3.0720    -7.0920     2.7750 oh         1 3BK      -0.554800
     28 C14         -4.0300    -4.8530     2.5590 c3         1 3BK       0.122100
     29 O24         -2.8640    -4.6210     3.3520 oh         1 3BK      -0.558800
     30 H18         -0.5420    -0.0010    -0.9380 ha         1 3BK       0.124000
     31 H21          1.9230     0.0010     3.3350 ha         1 3BK       0.119000
     32 H22         -0.5420     0.0010     3.3330 ha         1 3BK       0.114000
     33 H16         -2.5590     0.5100     0.3130 h1         1 3BK       0.027700
     34 H16A        -2.5600     0.5100     2.0820 h1         1 3BK       0.027700
     35 HN15        -2.0360    -2.1410     1.1640 hn         1 3BK       0.300800
     36 HN27        -7.0530     1.1640     1.1950 hn         1 3BK       0.274800
     37 HN2A        -8.7510     0.8150     1.1940 hn         1 3BK       0.274800
     38 H2          -9.0810    -3.7440     1.1950 h5         1 3BK      -0.006900
     39 H10         -2.8540    -4.0130     0.9380 h2         1 3BK       0.046700
     40 H12         -3.0700    -6.5710     0.3410 h1         1 3BK       0.045700
     41 H23         -6.0520    -7.2100     0.3880 h1         1 3BK      -0.004300
     42 H23A        -4.7680    -8.4190     0.5250 h1         1 3BK      -0.004300
     43 HO26        -5.3370    -8.2780    -1.6350 ho         1 3BK       0.389000
     44 H13         -5.1080    -6.7420     2.5510 h1         1 3BK       0.020700
     45 HO25        -3.4100    -7.7310     3.3810 ho         1 3BK       0.387000
     46 H14         -4.9200    -4.5100     3.0720 h1         1 3BK       0.033700
     47 HO24        -3.1210    -4.4230     4.2370 ho         1 3BK       0.393000
@<TRIPOS>BOND
     1     1     2 ar  
     2     1     8 ar  
     3     1    30 1   
     4     2     3 1   
     5     2     4 ar  
     6     4     5 1   
     7     4     6 ar  
     8     6     7 ar  
     9     6    31 1   
    10     7     8 ar  
    11     7    32 1   
    12     8     9 1   
    13     9    10 1   
    14     9    33 1   
    15     9    34 1   
    16    10    11 1   
    17    10    35 1   
    18    11    12 2   
    19    11    20 1   
    20    12    13 1   
    21    13    14 ar  
    22    13    19 ar  
    23    14    15 1   
    24    14    16 ar  
    25    15    36 1   
    26    15    37 1   
    27    16    17 ar  
    28    17    18 ar  
    29    17    38 1   
    30    18    19 ar  
    31    19    20 1   
    32    20    21 1   
    33    21    22 1   
    34    21    28 1   
    35    21    39 1   
    36    22    23 1   
    37    23    24 1   
    38    23    26 1   
    39    23    40 1   
    40    24    25 1   
    41    24    41 1   
    42    24    42 1   
    43    25    43 1   
    44    26    27 1   
    45    26    28 1   
    46    26    44 1   
    47    27    45 1   
    48    28    29 1   
    49    28    46 1   
    50    29    47 1   
@<TRIPOS>SUBSTRUCTURE
     1 3BK         1 TEMP              0 ****  ****    0 ROOT
