@<TRIPOS>MOLECULE
molecule
   47    50     1     0     0
SMALL
bcc


@<TRIPOS>ATOM
      1 C18          0.0000     0.0000     0.0000 ca         1 3BK      -0.097000
      2 C19          1.3830     0.0000     0.0000 ca         1 3BK       0.025400
      3 Cl28         2.2510     0.0010    -1.5030 cl         1 3BK      -0.079400
      4 C20          2.0740     0.0000     1.1990 ca         1 3BK       0.038400
      5 Cl29         3.8100     0.0010     1.2000 cl         1 3BK      -0.081400
      6 C21          1.3820     0.0010     2.3960 ca         1 3BK      -0.117000
      7 C22         -0.0000     0.0000     2.3950 ca         1 3BK      -0.100000
      8 C17         -0.6910    -0.0000     1.1980 ca         1 3BK      -0.114300
      9 C16         -2.1980    -0.0000     1.1980 c3         1 3BK       0.308100
     10 N15         -2.6860    -1.3820     1.1980 nu         1 3BK      -0.878200
     11 C6          -4.0430    -1.6350     1.1980 cc         1 3BK       0.674700
     12 N7          -4.9800    -0.7200     1.1980 nd         1 3BK      -0.656100
     13 C8          -6.1970    -1.3190     1.1960 ca         1 3BK      -0.177200
     14 C4          -7.5220    -0.8580     1.1950 ca         1 3BK       0.772200
     15 N27         -7.8010     0.4990     1.1950 nv         1 3BK      -0.990500
     16 N1          -8.5050    -1.7530     1.1950 nb         1 3BK      -0.828000
     17 C2          -8.2500    -3.0490     1.1950 ca         1 3BK       0.721900
     18 N3          -7.0230    -3.5270     1.1970 nb         1 3BK      -0.780000
     19 C9          -5.9770    -2.7070     1.1970 ca         1 3BK       0.473800
     20 N5          -4.6110    -2.8790     1.1930 na         1 3BK      -0.276000
     21 C10         -3.8990    -4.1580     1.1850 c3         1 3BK       0.254800
     22 O11         -4.5120    -5.0700     0.2490 os         1 3BK      -0.369600
     23 C12         -4.0870    -6.3860     0.6660 c3         1 3BK       0.129100
     24 C23         -5.0330    -7.4530     0.1120 c3         1 3BK       0.148400
     25 O26         -4.9220    -7.4960    -1.3110 oh         1 3BK      -0.594800
     26 C13         -4.1560    -6.3540     2.2090 c3         1 3BK       0.096100
     27 O25         -3.0720    -7.0920     2.7750 oh         1 3BK      -0.575800
     28 C14         -4.0300    -4.8530     2.5590 c3         1 3BK       0.088100
     29 O24         -2.8640    -4.6210     3.3520 oh         1 3BK      -0.579800
     30 H18         -0.5420    -0.0010    -0.9380 ha         1 3BK       0.157000
     31 H21          1.9230     0.0010     3.3350 ha         1 3BK       0.153000
     32 H22         -0.5420     0.0010     3.3330 ha         1 3BK       0.146000
     33 H16         -2.5590     0.5100     0.3130 h1         1 3BK       0.060700
     34 H16A        -2.5600     0.5100     2.0820 h1         1 3BK       0.060700
     35 HN15        -2.0360    -2.1410     1.1640 hn         1 3BK       0.454800
     36 HN27        -7.0530     1.1640     1.1950 hn         1 3BK       0.447800
     37 HN2A        -8.7510     0.8150     1.1940 hn         1 3BK       0.447800
     38 H2          -9.0810    -3.7440     1.1950 h5         1 3BK       0.058100
     39 H10         -2.8540    -4.0130     0.9380 h2         1 3BK       0.083700
     40 H12         -3.0700    -6.5710     0.3410 h1         1 3BK       0.081700
     41 H23         -6.0520    -7.2100     0.3880 h1         1 3BK       0.034200
     42 H23A        -4.7680    -8.4190     0.5250 h1         1 3BK       0.034200
     43 HO26        -5.3370    -8.2780    -1.6350 ho         1 3BK       0.403000
     44 H13         -5.1080    -6.7420     2.5510 h1         1 3BK       0.055700
     45 HO25        -3.4100    -7.7310     3.3810 ho         1 3BK       0.403000
     46 H14         -4.9200    -4.5100     3.0720 h1         1 3BK       0.071700
     47 HO24        -3.1210    -4.4230     4.2370 ho         1 3BK       0.409000
@<TRIPOS>BOND
     1     1     2 ar  
     2     1     8 ar  
     3     2     3 1   
     4     2     4 ar  
     5     4     5 1   
     6     4     6 ar  
     7     6     7 ar  
     8     7     8 ar  
     9     8     9 1   
    10     9    10 1   
    11    10    11 1   
    12    11    12 2   
    13    11    20 1   
    14    12    13 1   
    15    13    14 ar  
    16    13    19 ar  
    17    14    15 1   
    18    14    16 ar  
    19    16    17 ar  
    20    17    18 ar  
    21    18    19 ar  
    22    19    20 1   
    23    20    21 1   
    24    21    22 1   
    25    21    28 1   
    26    22    23 1   
    27    23    24 1   
    28    23    26 1   
    29    24    25 1   
    30    26    27 1   
    31    26    28 1   
    32    28    29 1   
    33     1    30 1   
    34     6    31 1   
    35     7    32 1   
    36     9    33 1   
    37     9    34 1   
    38    10    35 1   
    39    15    36 1   
    40    15    37 1   
    41    17    38 1   
    42    21    39 1   
    43    23    40 1   
    44    24    41 1   
    45    24    42 1   
    46    25    43 1   
    47    26    44 1   
    48    27    45 1   
    49    28    46 1   
    50    29    47 1   
@<TRIPOS>SUBSTRUCTURE
     1 3BK         1 TEMP              0 ****  ****    0 ROOT
