@<TRIPOS>MOLECULE
3BL
   69    73     1     0     0
SMALL
bcc


@<TRIPOS>ATOM
      1 C1           0.0000     0.0000     0.0000 ca         1 3BL      -0.144600
      2 O1          -0.9660    -1.9500    -6.4380 o          1 3BL      -0.548100
      3 C2           1.3970     0.0000     0.0000 ca         1 3BL      -0.076500
      4 C3           2.0840     0.0000     1.1930 ca         1 3BL      -0.109000
      5 C4           1.3860     0.0010     2.4010 cp         1 3BL      -0.007000
      6 C5           2.1270    -0.0000     3.6850 cp         1 3BL      -0.041000
      7 C6           3.5210     0.0040     3.6880 ca         1 3BL      -0.095500
      8 C24          0.2310    -1.8770    -6.5860 c          1 3BL       0.629900
      9 C23          1.0850    -1.2490    -5.5160 c3         1 3BL      -0.014500
     10 C25          2.0990    -2.2750    -5.0040 c3         1 3BL       0.106900
     11 C26          3.0320    -1.6120    -4.0240 cc         1 3BL      -0.421900
     12 N3           2.9070    -1.5970    -2.6610 na         1 3BL       0.272100
     13 C28          3.9540    -0.8980    -2.1720 cc         1 3BL       0.186400
     14 N2           4.6930    -0.4980    -3.1710 nd         1 3BL      -0.618000
     15 C27          4.1530    -0.9280    -4.3210 cd         1 3BL       0.316200
     16 C22         -0.3170     0.5310    -4.6630 c3         1 3BL       0.113800
     17 C21         -1.1980     0.9570    -3.4860 c3         1 3BL       0.025700
     18 C20         -1.6720     2.3980    -3.6940 c3         1 3BL      -0.034400
     19 C19         -0.4650     3.3390    -3.6580 c3         1 3BL      -0.056700
     20 C18         -0.9400     4.7750    -3.8960 c3         1 3BL      -0.020400
     21 C17          0.2590     5.7240    -3.8560 c3         1 3BL      -0.024400
     22 C16          0.9320     5.6340    -2.4850 c3         1 3BL      -0.023400
     23 C15          1.4120     4.2000    -2.2480 c3         1 3BL      -0.020400
     24 C14          0.2150     3.2470    -2.2900 c3         1 3BL      -0.057700
     25 C13          0.7070     1.8130    -2.0640 c3         1 3BL       0.004000
     26 N           -0.4210     0.8910    -2.2410 n          1 3BL      -0.119800
     27 C           -0.7390     0.0000    -1.2790 c          1 3BL       0.608700
     28 O           -1.6320    -0.8020    -1.4660 o          1 3BL      -0.650100
     29 C12         -0.6980    -0.0040     1.2100 ca         1 3BL      -0.076500
     30 C11         -0.0090     0.0010     2.4010 ca         1 3BL      -0.109000
     31 C10          1.4330     0.0000     4.8940 ca         1 3BL      -0.095500
     32 C9           2.1290     0.0000     6.0860 ca         1 3BL      -0.097500
     33 C8           3.5120    -0.0000     6.0830 ca         1 3BL      -0.096000
     34 C7           4.2060     0.0050     4.8860 ca         1 3BL      -0.097500
     35 H1           1.9390    -0.0000    -0.9380 ha         1 3BL       0.118000
     36 H2           3.1680     0.0000     1.1940 ha         1 3BL       0.116000
     37 H3           4.0660     0.0080     2.7520 ha         1 3BL       0.111000
     38 H5           1.6110    -0.3970    -5.9290 h1         1 3BL       0.061700
     39 H6           1.5760    -3.0860    -4.5130 hc         1 3BL       0.021200
     40 H7           2.6700    -2.6660    -5.8380 hc         1 3BL       0.021200
     41 H8           2.1770    -2.0240    -2.1270 hn         1 3BL       0.131700
     42 H9           4.1480    -0.7000    -1.1250 h5         1 3BL       0.024100
     43 H11          4.5460    -0.7490    -5.3150 h4         1 3BL       0.002100
     44 H12         -0.5170    -1.4570    -4.2790 hn         1 3BL       0.287800
     45 H14         -0.9110     0.5080    -5.5690 h1         1 3BL       0.023200
     46 H15          0.4940     1.2390    -4.7810 h1         1 3BL       0.023200
     47 H16         -2.0570     0.3000    -3.4120 h1         1 3BL       0.072700
     48 H17         -2.3620     2.6680    -2.9040 hc         1 3BL       0.027200
     49 H18         -2.1640     2.4800    -4.6550 hc         1 3BL       0.027200
     50 H19          0.2380     3.0570    -4.4330 hc         1 3BL       0.038700
     51 H20         -1.4180     4.8400    -4.8660 hc         1 3BL       0.016200
     52 H21         -1.6450     5.0530    -3.1220 hc         1 3BL       0.016200
     53 H22          0.9670     5.4420    -4.6250 hc         1 3BL       0.014200
     54 H23         -0.0800     6.7400    -4.0240 hc         1 3BL       0.014200
     55 H24          1.7800     6.3070    -2.4550 hc         1 3BL       0.014700
     56 H25          0.2200     5.9070    -1.7150 hc         1 3BL       0.014700
     57 H26          1.8890     4.1360    -1.2780 hc         1 3BL       0.018200
     58 H27          2.1180     3.9250    -3.0220 hc         1 3BL       0.018200
     59 H28         -0.4920     3.5150    -1.5140 hc         1 3BL       0.038700
     60 H29          1.4830     1.5780    -2.7830 h1         1 3BL       0.044700
     61 H30          1.0970     1.7190    -1.0570 h1         1 3BL       0.044700
     62 H31         -1.7820    -0.0040     1.2110 ha         1 3BL       0.118000
     63 H32         -0.5500    -0.0000     3.3390 ha         1 3BL       0.116000
     64 H33          0.3500     0.0010     4.8990 ha         1 3BL       0.111000
     65 H34          1.5910    -0.0010     7.0260 ha         1 3BL       0.104000
     66 H35          4.0540     0.0000     7.0210 ha         1 3BL       0.103000
     67 H36          5.2900     0.0060     4.8900 ha         1 3BL       0.104000
     68 N1           0.2330    -0.8060    -4.4050 n7         1 3BL      -0.590200
     69 H4           0.6850    -2.2310    -7.5040 h4         1 3BL      -0.034800
@<TRIPOS>BOND
     1     1     3 ar  
     2     1    27 1   
     3     1    29 ar  
     4     2     8 2   
     5     3     4 ar  
     6     3    35 1   
     7     4     5 ar  
     8     4    36 1   
     9     5     6 1   
    10     5    30 ar  
    11     6     7 ar  
    12     6    31 ar  
    13     7    34 ar  
    14     7    37 1   
    15     8     9 1   
    16     8    69 1   
    17     9    10 1   
    18     9    38 1   
    19     9    68 1   
    20    10    11 1   
    21    10    39 1   
    22    10    40 1   
    23    11    12 1   
    24    11    15 2   
    25    12    13 1   
    26    12    41 1   
    27    13    14 2   
    28    13    42 1   
    29    14    15 1   
    30    15    43 1   
    31    16    17 1   
    32    16    45 1   
    33    16    46 1   
    34    16    68 1   
    35    17    18 1   
    36    17    26 1   
    37    17    47 1   
    38    18    19 1   
    39    18    48 1   
    40    18    49 1   
    41    19    20 1   
    42    19    24 1   
    43    19    50 1   
    44    20    21 1   
    45    20    51 1   
    46    20    52 1   
    47    21    22 1   
    48    21    53 1   
    49    21    54 1   
    50    22    23 1   
    51    22    55 1   
    52    22    56 1   
    53    23    24 1   
    54    23    57 1   
    55    23    58 1   
    56    24    25 1   
    57    24    59 1   
    58    25    26 1   
    59    25    60 1   
    60    25    61 1   
    61    26    27 1   
    62    27    28 2   
    63    29    30 ar  
    64    29    62 1   
    65    30    63 1   
    66    31    32 ar  
    67    31    64 1   
    68    32    33 ar  
    69    32    65 1   
    70    33    34 ar  
    71    33    66 1   
    72    34    67 1   
    73    44    68 1   
@<TRIPOS>SUBSTRUCTURE
     1 3BL         1 TEMP              0 ****  ****    0 ROOT
