@<TRIPOS>MOLECULE
3BM
   40    41     1     0     0
SMALL
bcc


@<TRIPOS>ATOM
      1 C01          0.0000     0.0000     0.0000 ca         1 3BM       0.089600
      2 C02          1.3890     0.0000     0.0000 ca         1 3BM      -0.176000
      3 C03          2.0790     0.0000     1.1970 ca         1 3BM      -0.032000
      4 C04          1.3880     0.0020     2.3960 ca         1 3BM       0.158900
      5 C05          0.0050     0.0020     2.3990 ca         1 3BM      -0.033000
      6 C06         -0.6910     0.0060     1.2060 ca         1 3BM      -0.096600
      7 N07         -0.7010    -0.0000    -1.2090 nu         1 3BM      -0.239000
      8 C08         -0.0130     0.1310    -2.4110 ca         1 3BM       0.061600
      9 C09          0.5750    -0.9930    -3.0150 ca         1 3BM      -0.143600
     10 C10          1.2630    -0.8480    -4.2230 ca         1 3BM      -0.072000
     11 C11          1.3630     0.3910    -4.8140 ca         1 3BM      -0.112000
     12 C12          0.7810     1.5020    -4.2180 ca         1 3BM       0.106900
     13 C13          0.0910     1.3740    -3.0240 ca         1 3BM       0.071900
     14 C14          0.4660    -2.3170    -2.3770 c          1 3BM       0.593700
     15 N15          1.1270    -3.3710    -2.8970 ns         1 3BM      -0.065400
     16 O16         -0.2190    -2.4590    -1.3830 o          1 3BM      -0.608100
     17 O17          1.0230    -4.6430    -2.2850 os         1 3BM      -0.255900
     18 C18          1.7740    -5.6670    -2.9400 c3         1 3BM       0.178400
     19 C19          1.5890    -6.9910    -2.1970 c3         1 3BM       0.185100
     20 C20          2.2910    -8.1100    -2.9670 c3         1 3BM       0.211400
     21 O21          2.1540    -6.8860    -0.8880 oh         1 3BM      -0.571800
     22 O22          2.0200    -9.3640    -2.3370 oh         1 3BM      -0.582800
     23 I23          2.4390     0.0030     4.2080 i          1 3BM      -0.302900
     24 Cl24        -2.4280     0.0150     1.2130 cl         1 3BM      -0.019400
     25 F25         -0.4720     2.4600    -2.4500 f          1 3BM      -0.104900
     26 F26          0.8850     2.7130    -4.8060 f          1 3BM      -0.109900
     27 H02          1.9310    -0.0030    -0.9380 ha         1 3BM       0.115000
     28 H03          3.1620    -0.0000     1.1970 ha         1 3BM       0.113000
     29 H05         -0.5330     0.0050     3.3390 ha         1 3BM       0.124000
     30 HN07        -1.7000    -0.0560    -1.2080 hn         1 3BM       0.311800
     31 H10          1.7190    -1.7110    -4.6930 ha         1 3BM       0.109000
     32 H11          1.8990     0.5000    -5.7490 ha         1 3BM       0.127000
     33 HN15         1.7100    -3.2490    -3.7010 hn         1 3BM       0.165500
     34 H18          2.8240    -5.3980    -2.9440 h1         1 3BM       0.002200
     35 H18A         1.4260    -5.7730    -3.9600 h1         1 3BM       0.002200
     36 H19          0.5320    -7.2160    -2.1170 h1         1 3BM       0.019700
     37 H20          3.3590    -7.9310    -2.9710 h1         1 3BM      -0.007300
     38 H20A         1.9250    -8.1320    -3.9860 h1         1 3BM      -0.007300
     39 HO21         1.4810    -7.0250    -0.2430 ho         1 3BM       0.404000
     40 HO22         2.2500   -10.0660    -2.9220 ho         1 3BM       0.392000
@<TRIPOS>BOND
     1     1     2 ar  
     2     1     6 ar  
     3     1     7 1   
     4     2     3 ar  
     5     2    27 1   
     6     3     4 ar  
     7     3    28 1   
     8     4     5 ar  
     9     4    23 1   
    10     5     6 ar  
    11     5    29 1   
    12     6    24 1   
    13     7     8 1   
    14     7    30 1   
    15     8     9 ar  
    16     8    13 ar  
    17     9    10 ar  
    18     9    14 1   
    19    10    11 ar  
    20    10    31 1   
    21    11    12 ar  
    22    11    32 1   
    23    12    13 ar  
    24    12    26 1   
    25    13    25 1   
    26    14    15 1   
    27    14    16 2   
    28    15    17 1   
    29    15    33 1   
    30    17    18 1   
    31    18    19 1   
    32    18    34 1   
    33    18    35 1   
    34    19    20 1   
    35    19    21 1   
    36    19    36 1   
    37    20    22 1   
    38    20    37 1   
    39    20    38 1   
    40    21    39 1   
    41    22    40 1   
@<TRIPOS>SUBSTRUCTURE
     1 3BM         1 TEMP              0 ****  ****    0 ROOT
