@<TRIPOS>MOLECULE
3BN
   71    74     1     0     0
SMALL
bcc


@<TRIPOS>ATOM
      1 C1           0.0000     0.0000     0.0000 cx         1 3BN      -0.085400
      2 C2           1.5300     0.0000     0.0000 cx         1 3BN       0.038500
      3 C3           0.7650     0.0000     1.3260 cx         1 3BN      -0.085400
      4 N1           2.2090    -1.2430    -0.3910 n7         1 3BN      -0.544200
      5 C4           3.5350    -0.8600    -0.8920 c3         1 3BN       0.094800
      6 C5           4.3010    -2.1140    -1.3200 c3         1 3BN       0.173100
      7 C6           5.7250    -1.7290    -1.7260 c3         1 3BN       0.003700
      8 N2           6.4050    -1.1060    -0.5870 ns         1 3BN      -0.188900
      9 C7           6.2540     0.2120    -0.3510 c          1 3BN       0.600700
     10 O2           5.5540     0.8850    -1.0820 o          1 3BN      -0.648100
     11 O3           3.6380    -2.7210    -2.4310 oh         1 3BN      -0.582800
     12 C8           6.4910    -2.9820    -2.1530 c3         1 3BN       0.019900
     13 C9           6.9400     0.8410     0.7980 ca         1 3BN      -0.151600
     14 C10          7.7430     0.0720     1.6370 ca         1 3BN      -0.078000
     15 C11          8.3890     0.6680     2.7190 ca         1 3BN      -0.162600
     16 C12          8.2320     2.0360     2.9560 ca         1 3BN      -0.045000
     17 C13          7.4280     2.7980     2.1210 ca         1 3BN       0.077600
     18 C14          6.7840     2.2070     1.0430 ca         1 3BN      -0.021000
     19 C15          9.2400    -0.1450     3.6130 c          1 3BN       0.652300
     20 N3           7.2700     4.1650     2.3630 nh         1 3BN      -0.397900
     21 O4          10.0810     0.3930     4.3050 o          1 3BN      -0.556100
     22 C16          5.9320     4.7200     2.5860 c3         1 3BN       0.274100
     23 C17         10.1390    -2.4300     4.0380 ca         1 3BN      -0.062500
     24 C18          9.9730    -3.7980     4.0820 ca         1 3BN      -0.114500
     25 C19          8.7500    -4.3610     3.7560 ca         1 3BN      -0.072000
     26 C20          7.6880    -3.5560     3.3850 ca         1 3BN      -0.114500
     27 C21          7.8390    -2.1860     3.3410 ca         1 3BN      -0.062500
     28 C22          9.0700    -1.6120     3.6620 ca         1 3BN      -0.177600
     29 S1           8.5950     5.1580     2.3980 s6         1 3BN       0.960900
     30 C23          9.0160     5.2240     4.1620 c3         1 3BN      -0.000300
     31 O5           9.5580     4.4240     1.6560 o          1 3BN      -0.571800
     32 O6           8.0710     6.3970     1.9390 o          1 3BN      -0.571800
     33 C24          8.9230    -2.5120    -1.7990 ca         1 3BN      -0.098500
     34 C25         10.1710    -2.1520    -2.2710 ca         1 3BN      -0.093000
     35 C26         10.3460    -1.8690    -3.6130 ca         1 3BN      -0.098000
     36 C27          9.2750    -1.9460    -4.4820 ca         1 3BN      -0.093000
     37 C28          8.0280    -2.3120    -4.0110 ca         1 3BN      -0.098500
     38 C29          7.8510    -2.5900    -2.6680 ca         1 3BN      -0.097300
     39 H11         -0.4680    -0.9390    -0.2700 hc         1 3BN       0.045700
     40 H12A        -0.4680     0.9390    -0.2700 hc         1 3BN       0.045700
     41 H2           1.9840     0.9480    -0.2610 h1         1 3BN       0.065700
     42 H31          0.7650     0.9390     1.8650 hc         1 3BN       0.045700
     43 H32          0.7650    -0.9390     1.8650 hc         1 3BN       0.045700
     44 HN1          1.6920    -1.6900    -1.1220 hn         1 3BN       0.259800
     45 H41          3.4220    -0.1980    -1.7420 h1         1 3BN       0.041200
     46 H42          4.0840    -0.3510    -0.1090 h1         1 3BN       0.041200
     47 H5           4.3370    -2.8140    -0.4950 h1         1 3BN       0.005700
     48 H6           5.6890    -1.0290    -2.5520 h1         1 3BN       0.076700
     49 HN2          6.9460    -1.6680     0.0400 hn         1 3BN       0.182500
     50 HO3          3.3130    -3.5690    -2.1780 ho         1 3BN       0.392000
     51 H81          5.9410    -3.4920    -2.9350 hc         1 3BN       0.028700
     52 H82          6.6040    -3.6430    -1.3020 hc         1 3BN       0.028700
     53 H10          7.8630    -0.9880     1.4500 ha         1 3BN       0.123000
     54 H12          8.7330     2.5010     3.7970 ha         1 3BN       0.118000
     55 H14          6.1570     2.8050     0.3930 ha         1 3BN       0.137000
     56 H161         5.5350     5.0910     1.6490 h1         1 3BN       0.005033
     57 H162         5.9930     5.5320     3.3000 h1         1 3BN       0.005033
     58 H163         5.2800     3.9460     2.9730 h1         1 3BN       0.005033
     59 H18         10.8010    -4.4330     4.3720 ha         1 3BN       0.107500
     60 H19          8.6260    -5.4370     3.7910 ha         1 3BN       0.104000
     61 H20          6.7340    -4.0030     3.1340 ha         1 3BN       0.107500
     62 H21          7.0060    -1.5570     3.0500 ha         1 3BN       0.120500
     63 H231         8.2020     4.8080     4.7430 h1         1 3BN       0.067367
     64 H232         9.9170     4.6490     4.3390 h1         1 3BN       0.067367
     65 H233         9.1800     6.2530     4.4560 h1         1 3BN       0.067367
     66 H24          8.7850    -2.7350    -0.7480 ha         1 3BN       0.103500
     67 H25         11.0110    -2.0910    -1.5900 ha         1 3BN       0.104000
     68 H26         11.3240    -1.5840    -3.9830 ha         1 3BN       0.104000
     69 H27          9.4140    -1.7260    -5.5340 ha         1 3BN       0.104000
     70 H28          7.1880    -2.3720    -4.6920 ha         1 3BN       0.103500
     71 H17         11.0960    -1.9900     4.2920 ha         1 3BN       0.120500
@<TRIPOS>BOND
     1     1     2 1   
     2     1     3 1   
     3     1    39 1   
     4     1    40 1   
     5     2     3 1   
     6     2     4 1   
     7     2    41 1   
     8     3    42 1   
     9     3    43 1   
    10     4     5 1   
    11     4    44 1   
    12     5     6 1   
    13     5    45 1   
    14     5    46 1   
    15     6     7 1   
    16     6    11 1   
    17     6    47 1   
    18     7     8 1   
    19     7    12 1   
    20     7    48 1   
    21     8     9 1   
    22     8    49 1   
    23     9    10 2   
    24     9    13 1   
    25    11    50 1   
    26    12    38 1   
    27    12    51 1   
    28    12    52 1   
    29    13    14 ar  
    30    13    18 ar  
    31    14    15 ar  
    32    14    53 1   
    33    15    16 ar  
    34    15    19 1   
    35    16    17 ar  
    36    16    54 1   
    37    17    18 ar  
    38    17    20 1   
    39    18    55 1   
    40    19    21 2   
    41    19    28 1   
    42    20    22 1   
    43    20    29 1   
    44    22    56 1   
    45    22    57 1   
    46    22    58 1   
    47    23    24 ar  
    48    23    28 ar  
    49    23    71 1   
    50    24    25 ar  
    51    24    59 1   
    52    25    26 ar  
    53    25    60 1   
    54    26    27 ar  
    55    26    61 1   
    56    27    28 ar  
    57    27    62 1   
    58    29    30 1   
    59    29    31 2   
    60    29    32 2   
    61    30    63 1   
    62    30    64 1   
    63    30    65 1   
    64    33    34 ar  
    65    33    38 ar  
    66    33    66 1   
    67    34    35 ar  
    68    34    67 1   
    69    35    36 ar  
    70    35    68 1   
    71    36    37 ar  
    72    36    69 1   
    73    37    38 ar  
    74    37    70 1   
@<TRIPOS>SUBSTRUCTURE
     1 3BN         1 TEMP              0 ****  ****    0 ROOT
