@<TRIPOS>MOLECULE
molecule
   20    21     1     0     0
SMALL
bcc


@<TRIPOS>ATOM
      1 C01          0.0000     0.0000     0.0000 ca         1 3BO      -0.152000
      2 C02          1.3880     0.0000     0.0000 ca         1 3BO      -0.105000
      3 C03          2.0910     0.0000     1.1860 ca         1 3BO      -0.143000
      4 C04          1.4030    -0.0010     2.3960 ca         1 3BO      -0.035200
      5 C05         -0.0040    -0.0010     2.3890 ca         1 3BO      -0.092800
      6 C06         -0.6940     0.0060     1.1760 ca         1 3BO      -0.078000
      7 C07         -0.4140    -0.0020     3.7950 cc         1 3BO      -0.168400
      8 C08          0.7070    -0.0030     4.5320 cd         1 3BO      -0.082100
      9 N09          1.8040    -0.0030     3.7130 na         1 3BO      -0.180400
     10 C10         -1.8290    -0.0010     4.3160 c3         1 3BO       0.054900
     11 C11         -2.3320    -1.3830     4.3700 c1         1 3BO       0.221700
     12 N12         -2.7390    -2.4430     4.4100 n1         1 3BO      -0.381800
     13 H1          -0.5420     0.0000    -0.9380 ha         1 3BO       0.131000
     14 H2           1.9290    -0.0050    -0.9380 ha         1 3BO       0.131000
     15 H3           3.1740    -0.0000     1.1730 ha         1 3BO       0.127000
     16 H4          -1.7780     0.0060     1.1660 ha         1 3BO       0.132000
     17 H5           0.7580    -0.0100     5.6140 h4         1 3BO       0.166000
     18 H6           2.7500    -0.0040     4.0400 hn         1 3BO       0.299700
     19 H7          -1.8150     0.0060     5.3990 hc         1 3BO       0.078200
     20 H8          -2.3460     0.8800     3.9560 hc         1 3BO       0.078200
@<TRIPOS>BOND
     1    12    11 3   
     2    11    10 1   
     3    10     7 1   
     4     7     5 1   
     5     7     8 2   
     6     6     5 ar  
     7     6     1 ar  
     8     5     4 ar  
     9     8     9 1   
    10     1     2 ar  
    11     4     9 1   
    12     4     3 ar  
    13     2     3 ar  
    14     1    13 1   
    15     2    14 1   
    16     3    15 1   
    17     6    16 1   
    18     8    17 1   
    19     9    18 1   
    20    10    19 1   
    21    10    20 1   
@<TRIPOS>SUBSTRUCTURE
     1 3BO         1 TEMP              0 ****  ****    0 ROOT
