@<TRIPOS>MOLECULE
3BP
   80    82     1     0     0
SMALL
bcc


@<TRIPOS>ATOM
      1 C15          0.0000     0.0000     0.0000 c          1 3BP       0.574100
      2 O1           1.2130     0.0000     0.0000 o          1 3BP      -0.679100
      3 N17         -0.6740     0.0000     1.1670 ns         1 3BP      -0.181900
      4 C18          0.0590     0.0010     2.4350 c3         1 3BP       0.031700
      5 C19          0.4230     1.4390     2.8130 c3         1 3BP      -0.209400
      6 C20          1.4000     2.0060     1.7810 c3         1 3BP      -0.057400
      7 C28         -0.8040    -0.5990     3.5150 c          1 3BP       0.562100
      8 O30         -1.9230    -0.9880     3.2510 o          1 3BP      -0.594100
      9 N31         -0.3350    -0.7020     4.7740 ns         1 3BP      -0.197900
     10 C32         -1.1750    -1.2850     5.8240 c3         1 3BP       0.105300
     11 C16         -0.5150    -0.1970     7.9780 ca         1 3BP      -0.052500
     12 C17          0.1720    -0.1900     9.1740 ca         1 3BP      -0.072500
     13 C22          0.9640    -1.2830     9.5260 ca         1 3BP      -0.216900
     14 C23          1.0550    -2.3770     8.6660 ca         1 3BP      -0.072500
     15 C24          0.3580    -2.3740     7.4750 ca         1 3BP      -0.052500
     16 C25         -0.4210    -1.2840     7.1290 ca         1 3BP      -0.076300
     17 N1           1.6190    -0.2600    11.6100 n2         1 3BP      -0.467100
     18 C2           1.7590     3.4210     2.1530 c          1 3BP       0.312100
     19 O2           1.2800     3.9270     3.1470 o          1 3BP      -0.406100
     20 N3           2.6110     4.1250     1.3830 nz         1 3BP       0.198600
     21 C1          -1.2260     1.4190    -1.6220 c3         1 3BP       0.034900
     22 N4           0.1270    -0.4740    -2.3770 n7         1 3BP      -0.579100
     23 C5          -0.7540    -0.0010    -1.3050 c3         1 3BP       0.145500
     24 O4           1.0930    -2.1240    -3.8410 o          1 3BP      -0.573800
     25 O3           0.2670    -2.7430    -1.5790 o          1 3BP      -0.573800
     26 C9          -1.5630    -2.2920    -3.4910 c3         1 3BP       0.004400
     27 C8          -1.7390    -3.7410    -3.9510 c3         1 3BP       0.043900
     28 N2           2.4860    -2.3640    11.1530 nz         1 3BP       0.189400
     29 C11         -1.5000     1.5680    -4.1050 ca         1 3BP      -0.098500
     30 C7          -2.0830     1.3990    -2.8610 ca         1 3BP      -0.136300
     31 C3          -3.4490     1.2170    -2.7510 ca         1 3BP      -0.098500
     32 C4          -4.2400     1.1980    -3.8830 ca         1 3BP      -0.088000
     33 C13         -3.6570     1.3630    -5.1390 cp         1 3BP       0.005000
     34 C6          -2.2800     1.5460    -5.2430 ca         1 3BP      -0.088000
     35 C12         -6.3370     0.4230    -7.6020 ca         1 3BP      -0.094000
     36 C10         -5.5520     0.4330    -6.4680 ca         1 3BP      -0.088000
     37 C21         -4.5010     1.3420    -6.3590 cp         1 3BP      -0.065000
     38 C27         -4.2420     2.2290    -7.4020 ca         1 3BP      -0.088000
     39 C14         -5.0310     2.2060    -8.5350 ca         1 3BP      -0.094000
     40 C29         -6.0760     1.3060    -8.6360 ca         1 3BP      -0.081000
     41 H17         -1.6740     0.0020     1.1670 hn         1 3BP       0.215500
     42 H18          0.9640    -0.5840     2.3300 h1         1 3BP       0.059700
     43 H191         0.4330     1.7860     3.8390 hc         1 3BP       0.076200
     44 H192         1.1810     0.6640     2.8220 hc         1 3BP       0.076200
     45 H201         2.2970     1.3990     1.7620 hc         1 3BP       0.075200
     46 H202         0.9360     1.9960     0.8020 hc         1 3BP       0.075200
     47 H31          0.5850    -0.3760     4.9930 hn         1 3BP       0.166500
     48 H321        -1.4340    -2.3020     5.5570 h1         1 3BP       0.049200
     49 H322        -2.0800    -0.6980     5.9290 h1         1 3BP       0.049200
     50 H16         -1.1310     0.6510     7.7050 ha         1 3BP       0.132000
     51 H1           0.0970     0.6620     9.8390 ha         1 3BP       0.104500
     52 H23          1.6670    -3.2300     8.9350 ha         1 3BP       0.104500
     53 H24          0.4270    -3.2240     6.8060 ha         1 3BP       0.132000
     54 HN1          1.0510     0.5260    11.3590 hn         1 3BP       0.379400
     55 HN31         3.4960     3.6580     1.3530 hn         1 3BP       0.250467
     56 HN32         2.2400     4.1970     0.4560 hn         1 3BP       0.250467
     57 H11A        -1.8030     1.8020    -0.7900 hc         1 3BP       0.012700
     58 H12A        -0.3660     2.0570    -1.7890 hc         1 3BP       0.012700
     59 HN4          0.7330     0.1690    -2.8470 hn         1 3BP       0.357800
     60 H5          -1.6120    -0.6570    -1.2260 h1         1 3BP       0.051700
     61 H91         -1.7090    -1.6000    -4.3120 h1         1 3BP       0.066700
     62 H92         -2.1990    -2.0400    -2.6510 h1         1 3BP       0.066700
     63 H81         -2.7110    -3.8560    -4.4160 hc         1 3BP       0.017700
     64 H82         -1.6660    -4.4020    -3.0970 hc         1 3BP       0.017700
     65 H83         -0.9640    -3.9890    -4.6670 hc         1 3BP       0.017700
     66 HN21         1.9210    -3.1900    11.1710 hn         1 3BP       0.224800
     67 HN22         2.8800    -2.2080    12.0600 hn         1 3BP       0.224800
     68 H11         -0.4330     1.7370    -4.1840 ha         1 3BP       0.102500
     69 H3          -3.9020     1.1040    -1.7740 ha         1 3BP       0.102500
     70 H4          -5.3170     1.1360    -3.7890 ha         1 3BP       0.121000
     71 H6          -1.7810     1.7150    -6.1900 ha         1 3BP       0.121000
     72 H12         -7.1550    -0.2820    -7.6870 ha         1 3BP       0.109500
     73 H10         -5.7570    -0.2580    -5.6600 ha         1 3BP       0.105500
     74 H27         -3.4240     2.9350    -7.3250 ha         1 3BP       0.105500
     75 H14         -4.8300     2.8950    -9.3460 ha         1 3BP       0.109500
     76 H29         -6.6930     1.2930    -9.5250 ha         1 3BP       0.110000
     77 S1           0.1070    -2.0690    -2.8200 s6         1 3BP       0.944900
     78 H33          2.7300     5.0410     1.7680 hn         1 3BP       0.250467
     79 H231         3.2140    -2.4720    10.4750 hn         1 3BP       0.224800
     80 C26          1.7050    -1.2820    10.8090 ce         1 3BP       0.203800
@<TRIPOS>BOND
     1     1     2 2   
     2     1     3 1   
     3     1    23 1   
     4     3     4 1   
     5     3    41 1   
     6     4     5 1   
     7     4     7 1   
     8     4    42 1   
     9     5     6 1   
    10     5    43 1   
    11     5    44 1   
    12     6    18 1   
    13     6    45 1   
    14     6    46 1   
    15     7     8 2   
    16     7     9 1   
    17     9    10 1   
    18     9    47 1   
    19    10    16 1   
    20    10    48 1   
    21    10    49 1   
    22    11    12 ar  
    23    11    16 ar  
    24    11    50 1   
    25    12    13 ar  
    26    12    51 1   
    27    13    14 ar  
    28    13    80 1   
    29    14    15 ar  
    30    14    52 1   
    31    15    16 ar  
    32    15    53 1   
    33    17    54 1   
    34    17    80 2   
    35    18    19 2   
    36    18    20 1   
    37    20    55 1   
    38    20    56 1   
    39    20    78 1   
    40    21    23 1   
    41    21    30 1   
    42    21    57 1   
    43    21    58 1   
    44    22    23 1   
    45    22    59 1   
    46    22    77 1   
    47    23    60 1   
    48    24    77 2   
    49    25    77 2   
    50    26    27 1   
    51    26    61 1   
    52    26    62 1   
    53    26    77 1   
    54    27    63 1   
    55    27    64 1   
    56    27    65 1   
    57    28    66 1   
    58    28    67 1   
    59    28    79 1   
    60    28    80 1   
    61    29    30 ar  
    62    29    34 ar  
    63    29    68 1   
    64    30    31 ar  
    65    31    32 ar  
    66    31    69 1   
    67    32    33 ar  
    68    32    70 1   
    69    33    34 ar  
    70    33    37 1   
    71    34    71 1   
    72    35    36 ar  
    73    35    40 ar  
    74    35    72 1   
    75    36    37 ar  
    76    36    73 1   
    77    37    38 ar  
    78    38    39 ar  
    79    38    74 1   
    80    39    40 ar  
    81    39    75 1   
    82    40    76 1   
@<TRIPOS>SUBSTRUCTURE
     1 3BP         1 TEMP              0 ****  ****    0 ROOT
