@<TRIPOS>MOLECULE
molecule
   80    82     1     0     0
SMALL
bcc


@<TRIPOS>ATOM
      1 C15          0.0000     0.0000     0.0000 c          1 3BP       0.651100
      2 O1           1.2130     0.0000     0.0000 o          1 3BP      -0.636100
      3 N17         -0.6740     0.0000     1.1670 ns         1 3BP      -0.568900
      4 C18          0.0590     0.0010     2.4350 c3         1 3BP       0.104700
      5 C19          0.4230     1.4390     2.8130 c3         1 3BP      -0.219400
      6 C20          1.4000     2.0060     1.7810 c3         1 3BP      -0.122400
      7 C28         -0.8040    -0.5990     3.5150 c          1 3BP       0.654100
      8 O30         -1.9230    -0.9880     3.2510 o          1 3BP      -0.555100
      9 N31         -0.3350    -0.7020     4.7740 ns         1 3BP      -0.589900
     10 C32         -1.1750    -1.2850     5.8240 c3         1 3BP       0.154300
     11 C16         -0.5150    -0.1970     7.9780 ca         1 3BP      -0.100500
     12 C17          0.1720    -0.1900     9.1740 ca         1 3BP      -0.085500
     13 C22          0.9640    -1.2830     9.5260 ca         1 3BP      -0.183900
     14 C23          1.0550    -2.3770     8.6660 ca         1 3BP      -0.085500
     15 C24          0.3580    -2.3740     7.4750 ca         1 3BP      -0.100500
     16 C25         -0.4210    -1.2840     7.1290 ca         1 3BP      -0.068300
     17 N1           1.6190    -0.2600    11.6100 n2         1 3BP      -0.672100
     18 C2           1.7590     3.4210     2.1530 c          1 3BP       0.478100
     19 O2           1.2800     3.9270     3.1470 o          1 3BP      -0.401100
     20 N3           2.6110     4.1250     1.3830 nz         1 3BP      -0.685400
     21 C1          -1.2260     1.4190    -1.6220 c3         1 3BP      -0.033100
     22 N4           0.1270    -0.4740    -2.3770 n7         1 3BP      -0.889100
     23 C5          -0.7540    -0.0010    -1.3050 c3         1 3BP       0.189500
     24 O4           1.0930    -2.1240    -3.8410 o          1 3BP      -0.619800
     25 O3           0.2670    -2.7430    -1.5790 o          1 3BP      -0.619800
     26 C9          -1.5630    -2.2920    -3.4910 c3         1 3BP      -0.204600
     27 C8          -1.7390    -3.7410    -3.9510 c3         1 3BP      -0.072100
     28 N2           2.4860    -2.3640    11.1530 nz         1 3BP      -0.802600
     29 C11         -1.5000     1.5680    -4.1050 ca         1 3BP      -0.124500
     30 C7          -2.0830     1.3990    -2.8610 ca         1 3BP      -0.121300
     31 C3          -3.4490     1.2170    -2.7510 ca         1 3BP      -0.124500
     32 C4          -4.2400     1.1980    -3.8830 ca         1 3BP      -0.113500
     33 C13         -3.6570     1.3630    -5.1390 cp         1 3BP      -0.002000
     34 C6          -2.2800     1.5460    -5.2430 ca         1 3BP      -0.113500
     35 C12         -6.3370     0.4230    -7.6020 ca         1 3BP      -0.124000
     36 C10         -5.5520     0.4330    -6.4680 ca         1 3BP      -0.111500
     37 C21         -4.5010     1.3420    -6.3590 cp         1 3BP      -0.065000
     38 C27         -4.2420     2.2290    -7.4020 ca         1 3BP      -0.111500
     39 C14         -5.0310     2.2060    -8.5350 ca         1 3BP      -0.124000
     40 C29         -6.0760     1.3060    -8.6360 ca         1 3BP      -0.110000
     41 H17         -1.6740    -0.0230     1.1670 hn         1 3BP       0.354500
     42 H18          0.9640    -0.5840     2.3300 h1         1 3BP       0.085700
     43 H191         0.4330     1.7860     3.8390 hc         1 3BP       0.100700
     44 H192         1.1810     0.6640     2.8220 hc         1 3BP       0.100700
     45 H201         2.2970     1.3990     1.7620 hc         1 3BP       0.106700
     46 H202         0.9360     1.9960     0.8020 hc         1 3BP       0.106700
     47 H31          0.5910    -0.3900     4.9900 hn         1 3BP       0.309500
     48 H321        -1.4340    -2.3020     5.5570 h1         1 3BP       0.082700
     49 H322        -2.0800    -0.6980     5.9290 h1         1 3BP       0.082700
     50 H16         -1.1310     0.6510     7.7050 ha         1 3BP       0.166500
     51 H1           0.0970     0.6620     9.8390 ha         1 3BP       0.145500
     52 H23          1.6670    -3.2300     8.9350 ha         1 3BP       0.145500
     53 H24          0.4270    -3.2240     6.8060 ha         1 3BP       0.166500
     54 HN1          2.1190    -0.2590    12.4760 hn         1 3BP       0.441400
     55 HN31         3.4890     3.6460     1.3330 hn         1 3BP       0.481133
     56 HN32         2.2290     4.2180     0.4630 hn         1 3BP       0.481133
     57 H11A        -1.8030     1.8020    -0.7900 hc         1 3BP       0.046200
     58 H12A        -0.3660     2.0570    -1.7890 hc         1 3BP       0.046200
     59 HN4          0.7680     0.1590    -2.8130 hn         1 3BP       0.460800
     60 H5          -1.6120    -0.6570    -1.2260 h1         1 3BP       0.085700
     61 H91         -1.7090    -1.6000    -4.3120 h1         1 3BP       0.097200
     62 H92         -2.1990    -2.0400    -2.6510 h1         1 3BP       0.097200
     63 H81         -2.7580    -3.8920    -4.2870 hc         1 3BP       0.057700
     64 H82         -1.5270    -4.4100    -3.1260 hc         1 3BP       0.057700
     65 H83         -1.0560    -3.9460    -4.7670 hc         1 3BP       0.057700
     66 HN21         2.9200    -2.1930    12.0390 hn         1 3BP       0.468800
     67 HN22         1.9020    -3.1740    11.2180 hn         1 3BP       0.468800
     68 H11         -0.4390     1.7720    -4.1810 ha         1 3BP       0.126000
     69 H3          -3.9040     1.1230    -1.7730 ha         1 3BP       0.126000
     70 H4          -5.3180     1.1500    -3.7890 ha         1 3BP       0.148500
     71 H6          -1.7430     1.5600    -6.1840 ha         1 3BP       0.148500
     72 H12         -7.1550    -0.2820    -7.6870 ha         1 3BP       0.139000
     73 H10         -5.7570    -0.2580    -5.6600 ha         1 3BP       0.131500
     74 H27         -3.4240     2.9350    -7.3250 ha         1 3BP       0.131500
     75 H14         -4.8300     2.8950    -9.3460 ha         1 3BP       0.139000
     76 H29         -6.6930     1.2930    -9.5260 ha         1 3BP       0.141000
     77 S1           0.1070    -2.0690    -2.8200 s6         1 3BP       1.310900
     78 H33          2.7490     5.0320     1.7810 hn         1 3BP       0.481133
     79 H231         3.1920    -2.4960    10.4560 hn         1 3BP       0.468800
     80 C26          1.7050    -1.2820    10.8090 ce         1 3BP       0.535800
@<TRIPOS>BOND
     1     1     2 2   
     2     1     3 1   
     3     1    23 1   
     4     3     4 1   
     5     3    41 1   
     6     4     5 1   
     7     4     7 1   
     8     4    42 1   
     9     5     6 1   
    10     5    43 1   
    11     5    44 1   
    12     6    18 1   
    13     6    45 1   
    14     6    46 1   
    15     7     8 2   
    16     7     9 1   
    17     9    10 1   
    18     9    47 1   
    19    10    16 1   
    20    10    48 1   
    21    10    49 1   
    22    11    12 ar  
    23    11    16 ar  
    24    11    50 1   
    25    12    13 ar  
    26    12    51 1   
    27    13    14 ar  
    28    13    80 1   
    29    14    15 ar  
    30    14    52 1   
    31    15    16 ar  
    32    15    53 1   
    33    80    17 2   
    34    80    28 1   
    35    17    54 1   
    36    18    19 2   
    37    18    20 1   
    38    20    55 1   
    39    20    56 1   
    40    21    23 1   
    41    21    30 1   
    42    21    57 1   
    43    21    58 1   
    44    22    23 1   
    45    22    77 1   
    46    22    59 1   
    47    23    60 1   
    48    77    24 2   
    49    77    25 2   
    50    77    26 1   
    51    26    27 1   
    52    26    61 1   
    53    26    62 1   
    54    27    63 1   
    55    27    64 1   
    56    27    65 1   
    57    28    66 1   
    58    28    67 1   
    59    29    30 ar  
    60    29    34 ar  
    61    29    68 1   
    62    30    31 ar  
    63    31    32 ar  
    64    31    69 1   
    65    32    33 ar  
    66    32    70 1   
    67    33    34 ar  
    68    33    37 1   
    69    34    71 1   
    70    35    36 ar  
    71    35    40 ar  
    72    35    72 1   
    73    36    37 ar  
    74    36    73 1   
    75    37    38 ar  
    76    38    39 ar  
    77    38    74 1   
    78    39    40 ar  
    79    39    75 1   
    80    40    76 1   
    81    78    20 1   
    82    79    28 1   
@<TRIPOS>SUBSTRUCTURE
     1 3BP         1 TEMP              0 ****  ****    0 ROOT
