@<TRIPOS>MOLECULE
molecule
   51    53     1     0     0
SMALL
bcc


@<TRIPOS>ATOM
      1 O            0.0000     0.0000     0.0000 o          1 3BQ      -0.630100
      2 C4           1.2150     0.0000     0.0000 c          1 3BQ       0.785100
      3 N2           1.8890     0.0000     1.1670 ns         1 3BQ      -0.485100
      4 C5           1.1940     0.1110     2.3750 ca         1 3BQ       0.084600
      5 C13          1.6690    -0.5370     3.4950 ca         1 3BQ      -0.161000
      6 C12          0.9680    -0.4210     4.7020 ca         1 3BQ       0.007000
      7 C11          1.3990    -1.0560     5.8820 ca         1 3BQ      -0.247300
      8 C10          0.6630    -0.8960     7.0170 ca         1 3BQ       0.426200
      9 N3          -0.4420    -0.1630     7.0370 nb         1 3BQ      -0.691000
     10 C9          -0.9030     0.4580     5.9760 ca         1 3BQ       0.454200
     11 C8          -0.2180     0.3580     4.7540 ca         1 3BQ      -0.182300
     12 C7          -0.6740     1.0040     3.5930 ca         1 3BQ      -0.078000
     13 C6           0.0270     0.8810     2.4340 ca         1 3BQ      -0.135000
     14 N1           1.8890    -0.0070    -1.1680 ns         1 3BQ      -0.615900
     15 C3           1.1580    -0.0130    -2.4360 c3         1 3BQ       0.139000
     16 C2           2.1520    -0.0210    -3.5990 c3         1 3BQ      -0.109400
     17 C1           1.3880    -0.0530    -4.9240 c3         1 3BQ      -0.089000
     18 C            2.3820    -0.0510    -6.0860 c3         1 3BQ       0.097800
     19 N            3.1800    -1.2830    -6.0510 nz         1 3BQ      -0.812600
     20 C18          0.4840     1.1780    -5.0220 c3         1 3BQ      -0.082900
     21 C17         -0.2810     1.1440    -6.3480 c3         1 3BQ      -0.088400
     22 C16         -1.1360    -0.1230    -6.4110 c3         1 3BQ      -0.082400
     23 C15         -0.2330    -1.3540    -6.3120 c3         1 3BQ      -0.088400
     24 C14          0.5310    -1.3200    -4.9870 c3         1 3BQ      -0.082900
     25 H1           2.8900    -0.0370     1.1670 hn         1 3BQ       0.318500
     26 H2           2.6490    -0.9970     3.4800 ha         1 3BQ       0.134000
     27 H3           2.2980    -1.6600     5.8880 ha         1 3BQ       0.140000
     28 H4           0.9890    -1.3820     7.9290 h4         1 3BQ       0.026100
     29 H5          -1.8100     1.0460     6.0420 h4         1 3BQ       0.030100
     30 H6          -1.5760     1.6040     3.6220 ha         1 3BQ       0.144000
     31 H7          -0.3220     1.3900     1.5430 ha         1 3BQ       0.158000
     32 H8           2.8900    -0.0080    -1.1670 hn         1 3BQ       0.305500
     33 H9           0.5340    -0.8970    -2.4890 h1         1 3BQ       0.065700
     34 H10          0.5360     0.8710    -2.4980 h1         1 3BQ       0.065700
     35 H11          2.7860    -0.8960    -3.5260 hc         1 3BQ       0.041700
     36 H12          2.7630     0.8730    -3.5560 hc         1 3BQ       0.041700
     37 H13          1.8410     0.0020    -7.0240 hx         1 3BQ       0.115700
     38 H14          3.0380     0.8070    -5.9990 hx         1 3BQ       0.115700
     39 H15          3.8730    -1.2520    -6.7730 hn         1 3BQ       0.456467
     40 H16          3.6290    -1.3640    -5.1610 hn         1 3BQ       0.456467
     41 H18          1.0910     2.0740    -4.9800 hc         1 3BQ       0.065200
     42 H19         -0.2210     1.1730    -4.2000 hc         1 3BQ       0.065200
     43 H20         -0.9220     2.0150    -6.4150 hc         1 3BQ       0.049200
     44 H21          0.4240     1.1440    -7.1700 hc         1 3BQ       0.049200
     45 H22         -1.6750    -0.1460    -7.3510 hc         1 3BQ       0.068700
     46 H23         -1.8390    -0.1240    -5.5860 hc         1 3BQ       0.068700
     47 H24          0.4720    -1.3500    -7.1340 hc         1 3BQ       0.049200
     48 H25         -0.8400    -2.2500    -6.3540 hc         1 3BQ       0.049200
     49 H26          1.1720    -2.1910    -4.9190 hc         1 3BQ       0.065200
     50 H27         -0.1740    -1.3190    -4.1650 hc         1 3BQ       0.065200
     51 HN3          2.5810    -2.0730    -6.1860 hn         1 3BQ       0.456467
@<TRIPOS>BOND
     1     9     8 ar
     2     9    10 ar
     3     8     7 ar
     4    10    11 ar
     5     7     6 ar
     6    11     6 ar
     7    11    12 ar
     8     6     5 ar
     9    12    13 ar
    10     5     4 ar
    11    13     4 ar
    12     4     3 1
    13     1     2 2
    14     3     2 1
    15     2    14 1
    16    14    15 1
    17    15    16 1
    18    16    17 1
    19    24    17 1
    20    24    23 1
    21    17    20 1
    22    17    18 1
    23    23    22 1
    24    20    21 1
    25    22    21 1
    26    19    18 1
    27     3    25 1
    28     5    26 1
    29     7    27 1
    30     8    28 1
    31    10    29 1
    32    12    30 1
    33    13    31 1
    34    14    32 1
    35    15    33 1
    36    15    34 1
    37    16    35 1
    38    16    36 1
    39    18    37 1
    40    18    38 1
    41    19    39 1
    42    19    40 1
    43    20    41 1
    44    20    42 1
    45    21    43 1
    46    21    44 1
    47    22    45 1
    48    22    46 1
    49    23    47 1
    50    23    48 1
    51    24    49 1
    52    24    50 1
    53    51    19 1
@<TRIPOS>SUBSTRUCTURE
     1 3BQ         1 TEMP              0 ****  ****    0 ROOT
