@<TRIPOS>MOLECULE
molecule
   11    10     1     0     0
SMALL
bcc


@<TRIPOS>ATOM
      1 Br1          0.0000     0.0000     0.0000 br         1 3BR      -0.188400
      2 C1           1.9650     0.0000     0.0000 c3         1 3BR       0.006000
      3 C2           2.4760     0.0000     1.4410 c3         1 3BR      -0.086400
      4 C3           4.0050    -0.0000     1.4420 c3         1 3BR      -0.094100
      5 H11          2.3260     0.8840    -0.5110 h1         1 3BR       0.070700
      6 H12          2.3260    -0.8840    -0.5110 h1         1 3BR       0.070700
      7 H21          2.1150    -0.8840     1.9520 hc         1 3BR       0.054700
      8 H22          2.1150     0.8840     1.9520 hc         1 3BR       0.054700
      9 H31          4.3660    -0.8850     0.9310 hc         1 3BR       0.037700
     10 H32          4.3660    -0.0000     2.4630 hc         1 3BR       0.037700
     11 H33          4.3660     0.8850     0.9310 hc         1 3BR       0.037700
@<TRIPOS>BOND
     1     1     2 1   
     2     2     3 1   
     3     2     5 1   
     4     2     6 1   
     5     3     4 1   
     6     3     7 1   
     7     3     8 1   
     8     4     9 1   
     9     4    10 1   
    10     4    11 1   
@<TRIPOS>SUBSTRUCTURE
     1 3BR         1 TEMP              0 ****  ****    0 ROOT
