@<TRIPOS>MOLECULE
3BS
   52    53     1     0     0
SMALL
bcc


@<TRIPOS>ATOM
      1 CAQ          0.0000     0.0000     0.0000 c3         1 3BS      -0.066400
      2 CAR          1.5270     0.0000     0.0000 c3         1 3BS       0.137200
      3 CAS          2.0390     1.1920    -0.8180 c3         1 3BS      -0.004850
      4 CAH          1.9930    -1.2840    -0.7220 c3         1 3BS      -0.004850
      5 NAX          2.0930     0.0000     1.3330 n3         1 3BS      -0.316100
      6 OAY          2.4130    -1.3510     1.7960 oh         1 3BS      -0.460300
      7 CAW          1.5030     0.8100     2.3770 c3         1 3BS       0.137200
      8 CAV          2.0040     2.2580     2.3060 c3         1 3BS      -0.004850
      9 CAZ          1.9480     0.2390     3.7410 c3         1 3BS      -0.004850
     10 CAU         -0.0240     0.7980     2.3500 c3         1 3BS      -0.066400
     11 CAP         -0.5320     1.0840     0.9370 c3         1 3BS      -0.034300
     12 NAO         -2.0010     1.0450     0.9350 ns         1 3BS       0.011100
     13 CAN         -2.7040     2.1510     1.2460 cs         1 3BS       0.255400
     14 SAT         -1.8870     3.6020     1.6430 s          1 3BS      -0.709400
     15 NAM         -4.0510     2.1150     1.2440 ns         1 3BS       0.045900
     16 CAL         -4.7820     3.2370     1.6540 ca         1 3BS       0.000600
     17 CAF         -5.8300     3.0940     2.5560 ca         1 3BS      -0.093600
     18 CAE         -6.5480     4.2040     2.9580 ca         1 3BS       0.016000
     19 ClAG        -6.2360     1.5240     3.1750 cl         1 3BS       0.046600
     20 CAK         -4.4580     4.4960     1.1650 ca         1 3BS      -0.069000
     21 CAJ         -5.1800     5.6010     1.5720 ca         1 3BS       0.013000
     22 CAD         -6.2250     5.4550     2.4650 ca         1 3BS      -0.221500
     23 SAC         -7.1430     6.8670     2.9810 sy         1 3BS       0.934200
     24 OAI         -6.9870     7.8430     1.9600 o          1 3BS      -0.497300
     25 OAA         -8.4110     6.3870     3.4090 o          1 3BS      -0.497300
     26 NAB         -6.3950     7.4750     4.3270 nz         1 3BS      -0.130500
     27 HAQ         -0.3570    -0.9670     0.3340 hc         1 3BS       0.034200
     28 HAQA        -0.3570     0.1910    -1.0050 hc         1 3BS       0.034200
     29 HAS          1.5250     2.0930    -0.5050 hc         1 3BS       0.016200
     30 HASA         3.1040     1.3090    -0.6570 hc         1 3BS       0.016200
     31 HASB         1.8500     1.0160    -1.8700 hc         1 3BS       0.016200
     32 HAH          1.5950    -1.2960    -1.7300 hc         1 3BS       0.016200
     33 HAHA         1.6350    -2.1520    -0.1830 hc         1 3BS       0.016200
     34 HAHB         3.0750    -1.3040    -0.7610 hc         1 3BS       0.016200
     35 HOAY         3.3490    -1.4540     1.8400 ho         1 3BS       0.412000
     36 HAV          3.0770     2.2610     2.1540 hc         1 3BS       0.016200
     37 HAVA         1.5210     2.7670     1.4810 hc         1 3BS       0.016200
     38 HAVB         1.7690     2.7670     3.2320 hc         1 3BS       0.016200
     39 HAZ          1.5340     0.8450     4.5390 hc         1 3BS       0.016200
     40 HAZA         1.5920    -0.7790     3.8400 hc         1 3BS       0.016200
     41 HAZB         3.0290     0.2510     3.8030 hc         1 3BS       0.016200
     42 HAU         -0.3990     1.5590     3.0240 hc         1 3BS       0.034200
     43 HAUA        -0.3790    -0.1750     2.6680 hc         1 3BS       0.034200
     44 HAP         -0.1830     2.0560     0.6100 h1         1 3BS       0.108700
     45 HNAO        -2.4790     0.2050     0.6760 hn         1 3BS       0.164500
     46 HNAM        -4.5280     1.2690     1.0040 hn         1 3BS       0.174500
     47 HAE         -7.3660     4.0940     3.6600 ha         1 3BS       0.134000
     48 HAK         -3.6390     4.6110     0.4650 ha         1 3BS       0.183000
     49 HAJ         -4.9280     6.5820     1.1890 ha         1 3BS       0.130000
     50 HNAB        -6.3930     6.7820     5.0490 hn         1 3BS       0.314133
     51 HNAA        -5.4520     7.7230     4.1010 hn         1 3BS       0.314133
     52 HAB3        -6.8870     8.2860     4.6450 hn         1 3BS       0.314133
@<TRIPOS>BOND
     1     1     2 1   
     2     1    11 1   
     3     1    27 1   
     4     1    28 1   
     5     2     3 1   
     6     2     4 1   
     7     2     5 1   
     8     3    29 1   
     9     3    30 1   
    10     3    31 1   
    11     4    32 1   
    12     4    33 1   
    13     4    34 1   
    14     5     6 1   
    15     5     7 1   
    16     6    35 1   
    17     7     8 1   
    18     7     9 1   
    19     7    10 1   
    20     8    36 1   
    21     8    37 1   
    22     8    38 1   
    23     9    39 1   
    24     9    40 1   
    25     9    41 1   
    26    10    11 1   
    27    10    42 1   
    28    10    43 1   
    29    11    12 1   
    30    11    44 1   
    31    12    13 1   
    32    12    45 1   
    33    13    14 2   
    34    13    15 1   
    35    15    16 1   
    36    15    46 1   
    37    16    17 ar  
    38    16    20 ar  
    39    17    18 ar  
    40    17    19 1   
    41    18    22 ar  
    42    18    47 1   
    43    20    21 ar  
    44    20    48 1   
    45    21    22 ar  
    46    21    49 1   
    47    22    23 1   
    48    23    24 2   
    49    23    25 2   
    50    23    26 1   
    51    26    50 1   
    52    26    51 1   
    53    26    52 1   
@<TRIPOS>SUBSTRUCTURE
     1 3BS         1 TEMP              0 ****  ****    0 ROOT
