@<TRIPOS>MOLECULE
3BT
   38    38     1     0     0
SMALL
bcc


@<TRIPOS>ATOM
      1 CA           0.0000     0.0000     0.0000 c3         1 3BT       0.115200
      2 CB           1.5290     0.0000     0.0000 c3         1 3BT       0.051400
      3 N1          -3.2150     0.0010     2.4780 nz         1 3BT       0.153900
      4 N2          -2.7980     0.0020     0.1950 n2         1 3BT      -0.487600
      5 C           -2.3420     0.0010     1.4170 c2         1 3BT       0.176100
      6 S           -0.6040     0.0000     1.7060 ss         1 3BT      -0.204800
      7 C3           2.7240    -1.1950    -3.3750 ca         1 3BT      -0.099800
      8 C2           2.2670    -1.1960    -2.0710 ca         1 3BT      -0.087000
      9 C1           2.0320     0.0010    -1.4210 ca         1 3BT      -0.099800
     10 C6           2.2630     1.1980    -2.0720 ca         1 3BT      -0.080500
     11 C5           2.7230     1.1990    -3.3750 ca         1 3BT      -0.092000
     12 C4           2.9540     0.0030    -4.0260 ca         1 3BT      -0.080500
     13 CC           4.4200    -2.9410    -3.8470 c3         1 3BT       0.115200
     14 N1'          7.0670    -5.8920    -4.7220 nz         1 3BT       0.153900
     15 N2'          7.0330    -3.9080    -3.5190 n2         1 3BT      -0.487600
     16 C'           6.4080    -4.7730    -4.2700 c2         1 3BT       0.176100
     17 S'           4.7210    -4.5070    -4.7020 ss         1 3BT      -0.204800
     18 HCA1        -0.3610    -0.8840    -0.5110 h1         1 3BT       0.061950
     19 HCA2        -0.3610     0.8840    -0.5110 h1         1 3BT       0.061950
     20 HCB1         1.8900    -0.8850     0.5100 hc         1 3BT       0.036450
     21 HCB2         1.8900     0.8840     0.5110 hc         1 3BT       0.036450
     22 HN11        -3.7900     0.8190     2.4370 hn         1 3BT       0.229300
     23 HN12        -2.6980    -0.0010     3.3350 hn         1 3BT       0.229300
     24 HN21        -3.7850     0.0030     0.0290 hn         1 3BT       0.346400
     25 H21          2.0540    -2.1340    -1.5720 ha         1 3BT       0.108000
     26 H61          2.1180     2.1350    -1.5480 ha         1 3BT       0.119000
     27 H51          2.9170     2.1370    -3.8810 ha         1 3BT       0.122000
     28 H41          3.2160     0.2320    -5.0520 ha         1 3BT       0.119000
     29 HCC1         4.5870    -3.0720    -2.7850 h1         1 3BT       0.061950
     30 HCC2         5.0960    -2.1860    -4.2290 h1         1 3BT       0.061950
     31 HCD1         2.2990    -3.2550    -3.7040 hc         1 3BT       0.036450
     32 HCD2         2.8080    -2.3690    -5.1480 hc         1 3BT       0.036450
     33 H1'1         7.3820    -6.4330    -3.9410 hn         1 3BT       0.229300
     34 H1'2         6.4450    -6.4420    -5.2800 hn         1 3BT       0.229300
     35 HN2'         7.9910    -4.0580    -3.2720 hn         1 3BT       0.346400
     36 H13         -3.7880    -0.8190     2.4400 hn         1 3BT       0.229300
     37 H1'3         7.8570    -5.6150    -5.2710 hn         1 3BT       0.229300
     38 CD           2.9750    -2.4990    -4.0860 c3         1 3BT       0.051400
@<TRIPOS>BOND
     1     1     2 1   
     2     1     6 1   
     3     1    18 1   
     4     1    19 1   
     5     2     9 1   
     6     2    20 1   
     7     2    21 1   
     8     3     5 1   
     9     3    22 1   
    10     3    23 1   
    11     3    36 1   
    12     4     5 2   
    13     4    24 1   
    14     5     6 1   
    15     7     8 ar  
    16     7    12 ar  
    17     7    38 1   
    18     8     9 ar  
    19     8    25 1   
    20     9    10 ar  
    21    10    11 ar  
    22    10    26 1   
    23    11    12 ar  
    24    11    27 1   
    25    12    28 1   
    26    13    17 1   
    27    13    29 1   
    28    13    30 1   
    29    13    38 1   
    30    14    16 1   
    31    14    33 1   
    32    14    34 1   
    33    14    37 1   
    34    15    16 2   
    35    15    35 1   
    36    16    17 1   
    37    31    38 1   
    38    32    38 1   
@<TRIPOS>SUBSTRUCTURE
     1 3BT         1 TEMP              0 ****  ****    0 ROOT
