@<TRIPOS>MOLECULE
molecule
   38    38     1     0     0
SMALL
bcc


@<TRIPOS>ATOM
      1 CA           0.0000     0.0000     0.0000 c3         1 3BT      -0.008300
      2 CB           1.5290     0.0000     0.0000 c3         1 3BT      -0.014100
      3 N1          -3.2150     0.0010     2.4780 nz         1 3BT      -0.729600
      4 N2          -2.7980     0.0020     0.1950 n2         1 3BT      -0.733100
      5 C           -2.3420     0.0010     1.4170 c2         1 3BT       0.466100
      6 S           -0.6040     0.0000     1.7060 ss         1 3BT      -0.191800
      7 C3           2.7240    -1.1950    -3.3750 ca         1 3BT      -0.094800
      8 C2           2.2670    -1.1960    -2.0710 ca         1 3BT      -0.115000
      9 C1           2.0320     0.0010    -1.4210 ca         1 3BT      -0.094800
     10 C6           2.2630     1.1980    -2.0720 ca         1 3BT      -0.108000
     11 C5           2.7230     1.1990    -3.3750 ca         1 3BT      -0.118000
     12 C4           2.9540     0.0030    -4.0260 ca         1 3BT      -0.108000
     13 CC           4.4200    -2.9410    -3.8470 c3         1 3BT      -0.008300
     14 N1'          7.0670    -5.8920    -4.7220 nz         1 3BT      -0.729600
     15 N2'          7.0330    -3.9080    -3.5190 n2         1 3BT      -0.733100
     16 C'           6.4080    -4.7730    -4.2700 c2         1 3BT       0.466100
     17 S'           4.7210    -4.5070    -4.7020 ss         1 3BT      -0.191800
     18 HCA1        -0.3610     0.8840    -0.5110 h1         1 3BT       0.083200
     19 HCA2        -0.3610    -0.8840    -0.5110 h1         1 3BT       0.083200
     20 HCB1         1.8900     0.8840     0.5110 hc         1 3BT       0.075200
     21 HCB2         1.8900    -0.8850     0.5100 hc         1 3BT       0.075200
     22 HN11        -3.7870     0.8220     2.4400 hn         1 3BT       0.479300
     23 HN12        -3.7960    -0.8130     2.4330 hn         1 3BT       0.479300
     24 HN21        -2.1630     0.0030    -0.5780 hn         1 3BT       0.479400
     25 H21          2.0540    -2.1340    -1.5720 ha         1 3BT       0.132000
     26 H61          2.1190     2.1350    -1.5480 ha         1 3BT       0.150000
     27 H51          2.9170     2.1370    -3.8810 ha         1 3BT       0.157000
     28 H41          3.2160     0.2320    -5.0520 ha         1 3BT       0.150000
     29 HCC1         4.5870    -3.0720    -2.7850 h1         1 3BT       0.083200
     30 HCC2         5.0960    -2.1860    -4.2290 h1         1 3BT       0.083200
     31 HCD1         2.8080    -2.3690    -5.1480 hc         1 3BT       0.075200
     32 HCD2         2.2990    -3.2550    -3.7040 hc         1 3BT       0.075200
     33 H1'1         7.8590    -5.6150    -5.2680 hn         1 3BT       0.479300
     34 H1'2         7.3740    -6.4370    -3.9410 hn         1 3BT       0.479300
     35 HN2'         6.5550    -3.0930    -3.1880 hn         1 3BT       0.479400
     36 H13         -2.6980     0.0050     3.3350 hn         1 3BT       0.479300
     37 H1'3         6.4420    -6.4470    -5.2730 hn         1 3BT       0.479300
     38 CD           2.9750    -2.4990    -4.0860 c3         1 3BT      -0.014100
@<TRIPOS>BOND
     1     1     2 1
     2     1     6 1
     3     1    18 1
     4     1    19 1
     5     2     9 1
     6     2    20 1
     7     2    21 1
     8     3     5 1
     9     3    22 1
    10     3    23 1
    11     4     5 2
    12     4    24 1
    13     5     6 1
    14     7     8 ar
    15     7    12 ar
    16     7    38 1
    17     8     9 ar
    18     8    25 1
    19     9    10 ar
    20    10    11 ar
    21    10    26 1
    22    11    12 ar
    23    11    27 1
    24    12    28 1
    25    13    38 1
    26    13    17 1
    27    13    29 1
    28    13    30 1
    29    38    31 1
    30    38    32 1
    31    14    16 1
    32    14    33 1
    33    14    34 1
    34    15    16 2
    35    15    35 1
    36    16    17 1
    37    36     3 1
    38    37    14 1
@<TRIPOS>SUBSTRUCTURE
     1 3BT         1 TEMP              0 ****  ****    0 ROOT
