@<TRIPOS>MOLECULE
molecule
   24    23     1     0     0
SMALL
bcc


@<TRIPOS>ATOM
      1 C6           0.0000     0.0000     0.0000 c3         1 3BU       0.109400
      2 O6           1.4290     0.0000     0.0000 oh         1 3BU      -0.614800
      3 C5          -0.5100     0.0000     1.4420 c3         1 3BU       0.137100
      4 O5          -0.1320    -1.2210     2.0810 oh         1 3BU      -0.587800
      5 C4          -2.0350     0.1250     1.4450 c3         1 3BU       0.153100
      6 O4          -2.4120     1.3470     0.8070 oh         1 3BU      -0.577800
      7 C3          -2.5440     0.1250     2.8880 c3         1 3BU       0.157100
      8 O3          -2.1660    -1.0960     3.5260 oh         1 3BU      -0.578800
      9 C2          -4.0690     0.2510     2.8900 c3         1 3BU       0.010100
     10 O2          -4.4470     1.4730     2.2520 oh         1 3BU      -0.566800
     11 C1          -4.5710     0.2500     4.3100 c          1 3BU       0.531900
     12 O1          -5.1880     1.1980     4.7340 o          1 3BU      -0.500100
     13 H1          -0.3610    -0.8850    -0.5110 h1         1 3BU       0.031700
     14 H2          -0.3610     0.8850    -0.5110 h1         1 3BU       0.031700
     15 H3           1.7430     0.0640    -0.8870 ho         1 3BU       0.407000
     16 H4          -0.0780     0.8370     1.9780 h1         1 3BU       0.053700
     17 H5           0.7500    -1.1460     2.4060 ho         1 3BU       0.412000
     18 H6          -2.4670    -0.7110     0.9090 h1         1 3BU       0.052700
     19 H7          -2.8230     1.1560    -0.0200 ho         1 3BU       0.405000
     20 H8          -2.1120     0.9610     3.4240 h1         1 3BU       0.061700
     21 H9          -1.8790    -0.9150     4.4050 ho         1 3BU       0.406000
     22 H10         -4.5020    -0.5850     2.3540 h1         1 3BU       0.058700
     23 H11         -5.3640     1.4430     2.0340 ho         1 3BU       0.406000
     24 H12         -4.4110    -0.6170     4.9400 h4         1 3BU       0.002200
@<TRIPOS>BOND
     1    10     9 1   
     2     9    11 1   
     3     9     7 1   
     4    12    11 2   
     5     8     7 1   
     6     7     5 1   
     7     4     3 1   
     8     5     6 1   
     9     5     3 1   
    10     3     1 1   
    11     2     1 1   
    12     1    13 1   
    13     1    14 1   
    14     2    15 1   
    15     3    16 1   
    16     4    17 1   
    17     5    18 1   
    18     6    19 1   
    19     7    20 1   
    20     8    21 1   
    21     9    22 1   
    22    10    23 1   
    23    11    24 1   
@<TRIPOS>SUBSTRUCTURE
     1 3BU         1 TEMP              0 ****  ****    0 ROOT
