@<TRIPOS>MOLECULE
3BU
   24    23     1     0     0
SMALL
bcc


@<TRIPOS>ATOM
      1 C6          0.0850    0.1600    0.1110 c3        1 3BU      0.102400
      2 O6          1.4930    0.0410    0.2600 oh        1 3BU     -0.621800
      3 C5         -0.5040   -0.0450    1.5090 c3        1 3BU      0.141100
      4 O5         -0.1130   -1.3030    2.0420 oh        1 3BU     -0.620800
      5 C4         -2.0470   -0.0530    1.4600 c3        1 3BU      0.120100
      6 O4         -2.4050    0.9750    0.5530 oh        1 3BU     -0.607800
      7 C3         -2.6520    0.2160    2.8510 c3        1 3BU      0.097100
      8 O3         -2.2720   -0.7560    3.8100 oh        1 3BU     -0.612800
      9 C2         -4.1970    0.1540    2.8170 c3        1 3BU      0.017100
     10 O2         -4.7240    1.1420    1.9550 oh        1 3BU     -0.598800
     11 C1         -4.7300    0.2800    4.2290 c         1 3BU      0.553900
     12 O1         -5.3550    1.2760    4.5920 o         1 3BU     -0.526100
     13 H1         -0.1880    1.1770   -0.2750 h1        1 3BU      0.050200
     14 H2         -0.2970   -0.6270   -0.5900 h1        1 3BU      0.050200
     15 H3          1.8770    0.1730   -0.6130 ho        1 3BU      0.413000
     16 H4         -0.1430    0.7740    2.1920 h1        1 3BU      0.055700
     17 H5          0.8430   -1.3760    1.9150 ho        1 3BU      0.434000
     18 H6         -2.4010   -1.0550    1.0880 h1        1 3BU      0.062700
     19 H7         -3.3630    0.9280    0.4240 ho        1 3BU      0.434000
     20 H8         -2.3260    1.2370    3.1980 h1        1 3BU      0.052700
     21 H9         -1.3340   -0.9550    3.6890 ho        1 3BU      0.438000
     22 H10        -4.5280   -0.8280    2.3730 h1        1 3BU      0.101700
     23 H11        -4.7350    1.9820    2.4370 ho        1 3BU      0.428000
     24 H12        -4.5000   -0.5760    4.8970 h4        1 3BU      0.036200
@<TRIPOS>BOND
     1    1    2 1   
     2    1    3 1   
     3    1   13 1   
     4    1   14 1   
     5    2   15 1   
     6    3    4 1   
     7    3    5 1   
     8    3   16 1   
     9    4   17 1   
    10    5    6 1   
    11    5    7 1   
    12    5   18 1   
    13    6   19 1   
    14    7    8 1   
    15    7    9 1   
    16    7   20 1   
    17    8   21 1   
    18    9   10 1   
    19    9   11 1   
    20    9   22 1   
    21   10   23 1   
    22   11   12 2   
    23   11   24 1   
@<TRIPOS>SUBSTRUCTURE
     1 3BU         1 TEMP              0 ****  ****    0 ROOT
