@<TRIPOS>MOLECULE
molecule
   46    48     1     0     0
SMALL
bcc


@<TRIPOS>ATOM
      1 C1           0.0000     0.0000     0.0000 ca         1 3BW      -0.165000
      2 C2           1.3810     0.0000     0.0000 ca         1 3BW      -0.096000
      3 C3           2.0750     0.0000     1.2030 ca         1 3BW      -0.002100
      4 C8          -2.6910    -0.0860     0.0020 ca         1 3BW       0.098100
      5 C9          -2.9700    -1.3280    -0.5500 ca         1 3BW      -0.129000
      6 C10         -3.6170    -1.4120    -1.7660 ca         1 3BW      -0.113500
      7 C11         -3.9880    -0.2590    -2.4360 ca         1 3BW       0.026400
      8 C12         -3.7100     0.9810    -1.8860 ca         1 3BW      -0.113500
      9 C13         -3.0690     1.0700    -0.6670 ca         1 3BW      -0.129000
     10 C16          4.2440     0.0000     2.9720 c3         1 3BW      -0.006300
     11 C19          7.8550     1.3250     2.8270 c3         1 3BW       0.131400
     12 C21          7.6290    -0.0140     4.8050 c3         1 3BW       0.131400
     13 C22          6.1090    -0.0940     4.6350 c3         1 3BW      -0.102400
     14 C5          -0.0020    -0.0010     2.4040 ca         1 3BW      -0.165000
     15 C4           1.3790     0.0000     2.4050 ca         1 3BW      -0.096000
     16 C6          -0.6940    -0.0010     1.2010 ca         1 3BW       0.129100
     17 C23          6.3550    -1.1780     2.4150 c          1 3BW       0.679100
     18 C18          6.3450     1.2990     2.5790 c3         1 3BW      -0.102400
     19 C17          5.7640    -0.0010     3.1460 c3         1 3BW      -0.112000
     20 O24          7.0680    -0.9970     1.4510 o          1 3BW      -0.564100
     21 O20          8.1080     1.2030     4.2290 os         1 3BW      -0.422600
     22 O26          6.7280    -3.5340     2.2110 oh         1 3BW      -0.360100
     23 O7          -2.0530    -0.0010     1.2000 os         1 3BW      -0.249200
     24 S15          3.8370    -0.0010     1.2050 ss         1 3BW      -0.219000
     25 Cl1         -4.8000    -0.3670    -3.9660 cl         1 3BW      -0.100400
     26 H1          -0.5410    -0.0000    -0.9380 ha         1 3BW       0.147000
     27 H2           1.9230     0.0000    -0.9380 ha         1 3BW       0.140000
     28 H3          -2.6780    -2.2310    -0.0280 ha         1 3BW       0.152500
     29 H4          -3.8350    -2.3820    -2.1970 ha         1 3BW       0.150500
     30 H5          -4.0030     1.8830    -2.4100 ha         1 3BW       0.150500
     31 H6          -2.8520     2.0400    -0.2370 ha         1 3BW       0.152500
     32 H7           3.8280     0.8850     3.4380 h1         1 3BW       0.065700
     33 H8           3.8260    -0.8840     3.4390 h1         1 3BW       0.065700
     34 H9           8.2630     2.2620     2.4680 h1         1 3BW       0.061450
     35 H10          8.3210     0.4980     2.3040 h1         1 3BW       0.061450
     36 H11          7.8750    -0.0340     5.8600 h1         1 3BW       0.061450
     37 H12          8.0920    -0.8560     4.3040 h1         1 3BW       0.061450
     38 H13          5.7510    -1.0370     5.0310 hc         1 3BW       0.061450
     39 H14          5.6430     0.7280     5.1660 hc         1 3BW       0.061450
     40 H15          5.4090    -2.5880     3.5490 hn         1 3BW       0.319500
     41 H16         -0.5450    -0.0010     3.3410 ha         1 3BW       0.147000
     42 H17          1.9190     0.0000     3.3440 ha         1 3BW       0.140000
     43 H18          5.8840     2.1460     3.0720 hc         1 3BW       0.061450
     44 H19          6.1540     1.3450     1.5140 hc         1 3BW       0.061450
     45 H20          6.3340    -4.3360     2.5130 ho         1 3BW       0.399000
     46 N25          6.0900    -2.4330     2.8320 ns         1 3BW      -0.469400
@<TRIPOS>BOND
     1    25     7 1
     2     7     6 ar
     3     7     8 ar
     4     6     5 ar
     5     8     9 ar
     6     5     4 ar
     7     9     4 ar
     8     4    23 1
     9    23    16 1
    10     1    16 ar
    11     1     2 ar
    12    16    14 ar
    13     2     3 ar
    14    14    15 ar
    15     3    15 ar
    16     3    24 1
    17    13    12 1
    18    13    19 1
    19    20    17 2
    20    12    21 1
    21    24    10 1
    22    10    19 1
    23    19    17 1
    24    19    18 1
    25    17    46 1
    26    21    11 1
    27    18    11 1
    28    46    22 1
    29     1    26 1
    30     2    27 1
    31     5    28 1
    32     6    29 1
    33     8    30 1
    34     9    31 1
    35    10    32 1
    36    10    33 1
    37    11    34 1
    38    11    35 1
    39    12    36 1
    40    12    37 1
    41    13    38 1
    42    13    39 1
    43    46    40 1
    44    14    41 1
    45    15    42 1
    46    18    43 1
    47    18    44 1
    48    22    45 1
@<TRIPOS>SUBSTRUCTURE
     1 3BW         1 TEMP              0 ****  ****    0 ROOT
