@<TRIPOS>MOLECULE
3BX
   63    66     1     0     0
SMALL
bcc


@<TRIPOS>ATOM
      1 C1           0.0000     0.0000     0.0000 ca         1 3BX      -0.093500
      2 C2           1.3790     0.0000     0.0000 ca         1 3BX      -0.092000
      3 C3           2.0740     0.0000     1.2120 ca         1 3BX       0.069000
      4 C9          -2.9050    -1.6490     2.5490 c3         1 3BX       0.113300
      5 C10         -4.1230    -1.1190     2.8940 c3         1 3BX       0.156900
      6 C12         -5.0930    -0.5480     0.9840 c3         1 3BX       0.156900
      7 C13         -3.7130    -1.3650     0.2930 c3         1 3BX       0.113300
      8 C14          3.5070     0.0010     1.2190 cg         1 3BX      -0.160000
      9 C15          4.6800     0.0200     1.2150 ch         1 3BX      -0.222000
     10 C16          6.4680    -0.0910     1.2790 ca         1 3BX       0.159000
     11 C19          9.1930    -0.4040     1.4490 ca         1 3BX       0.167100
     12 C20          8.1250    -1.3230     1.9050 ca         1 3BX      -0.234000
     13 C21          6.6680    -1.0170     1.7440 ca         1 3BX      -0.065500
     14 C24         11.5120    -0.8640    -0.9530 c3         1 3BX      -0.195000
     15 C30         10.7270    -0.4790    -2.3160 c          1 3BX       0.677100
     16 C4           1.3660    -0.0000     2.4160 ca         1 3BX      -0.092000
     17 C17          7.0720     0.8270     0.8220 ca         1 3BX      -0.065500
     18 C5          -0.0130    -0.0010     2.4000 ca         1 3BX      -0.093500
     19 C18          8.2700     0.8320     0.8260 ca         1 3BX      -0.234000
     20 C6          -0.6950    -0.0010     1.1960 ca         1 3BX      -0.087300
     21 C25         12.9810    -1.0520    -0.9870 c3         1 3BX      -0.061400
     22 C29         10.5680    -2.1350    -0.2700 c3         1 3BX      -0.061400
     23 C26         13.3190    -1.4780     0.6130 c3         1 3BX       0.222900
     24 C28         11.4080    -2.6780     0.9750 c3         1 3BX       0.222900
     25 C23         10.9540     0.3600     0.1870 c3         1 3BX       0.151400
     26 N8          -2.6890    -1.4440     1.1460 n3         1 3BX      -0.478600
     27 N32         10.9650     0.7970    -2.7240 ns         1 3BX      -0.191400
     28 O31         10.4040    -1.3570    -2.7890 o          1 3BX      -0.464100
     29 O27         12.7790    -2.5310     1.0140 os         1 3BX      -0.360600
     30 O11         -5.3360    -0.9090     2.1670 os         1 3BX      -0.335600
     31 O33         11.4380     0.9810    -4.1120 oh         1 3BX      -0.454100
     32 O22         10.3560    -0.6080     1.2880 os         1 3BX      -0.207900
     33 H1          -0.5420    -0.0000    -0.9380 ha         1 3BX       0.103000
     34 H2           1.9210     0.0000    -0.9380 ha         1 3BX       0.108500
     35 H3          -2.5640     0.5430     2.0570 h1         1 3BX       0.030700
     36 H4          -2.5560     0.4940     0.2890 h1         1 3BX       0.030700
     37 H5          -2.8990    -2.7110     2.7650 h1         1 3BX       0.035450
     38 H6          -2.1230    -1.1550     3.1120 h1         1 3BX       0.035450
     39 H7          -3.8780    -0.1370     3.2810 h1         1 3BX      -0.002300
     40 H8          -4.4310    -1.7090     3.7490 h1         1 3BX      -0.002300
     41 H9          -5.9620    -0.7560     0.3710 h1         1 3BX      -0.002300
     42 H10         -4.9040     0.5190     0.9780 h1         1 3BX      -0.002300
     43 H11         -4.0070    -2.3670     0.0070 h1         1 3BX       0.035450
     44 H12         -3.3910    -0.8230    -0.5890 h1         1 3BX       0.035450
     45 H13          8.4040    -2.2010     2.4750 ha         1 3BX       0.103000
     46 H14          5.8940    -1.6130     2.2120 ha         1 3BX       0.137000
     47 H15          1.8990    -0.0000     3.3580 ha         1 3BX       0.108500
     48 H16          6.5270     1.7440     0.6340 ha         1 3BX       0.137000
     49 H17         -0.5650    -0.0010     3.3330 ha         1 3BX       0.103000
     50 H18          8.7640     1.7120     0.4320 ha         1 3BX       0.103000
     51 H19         13.4800    -0.1290    -1.2530 hc         1 3BX       0.042200
     52 H20         13.2500    -1.8550    -1.6630 hc         1 3BX       0.042200
     53 H21          9.6120    -1.7510     0.0640 hc         1 3BX       0.042200
     54 H22         10.4270    -2.9260    -0.9970 hc         1 3BX       0.042200
     55 H23         14.3920    -1.5890     0.7130 h1         1 3BX       0.001200
     56 H24         12.9950    -0.6670     1.2550 h1         1 3BX       0.001200
     57 H25         11.2000    -3.7380     1.0590 h1         1 3BX       0.001200
     58 H26         11.0120    -2.1940     1.8590 h1         1 3BX       0.001200
     59 H27         11.7790     0.9440     0.5780 h1         1 3BX       0.034200
     60 H28         10.1870     0.9880    -0.2490 h1         1 3BX       0.034200
     61 H30         10.5560     1.5650    -2.2290 hn         1 3BX       0.173500
     62 H31         11.1770     1.8320    -4.4230 ho         1 3BX       0.389000
     63 C7          -2.2020     0.0050     1.1880 c3         1 3BX       0.135100
@<TRIPOS>BOND
     1     1     2 ar  
     2     1    20 ar  
     3     1    33 1   
     4     2     3 ar  
     5     2    34 1   
     6     3     8 1   
     7     3    16 ar  
     8     4     5 1   
     9     4    26 1   
    10     4    37 1   
    11     4    38 1   
    12     5    30 1   
    13     5    39 1   
    14     5    40 1   
    15     6     7 1   
    16     6    30 1   
    17     6    41 1   
    18     6    42 1   
    19     7    26 1   
    20     7    43 1   
    21     7    44 1   
    22     8     9 3   
    23     9    10 1   
    24    10    13 ar  
    25    10    17 ar  
    26    11    12 ar  
    27    11    19 ar  
    28    11    32 1   
    29    12    13 ar  
    30    12    45 1   
    31    13    46 1   
    32    14    15 1   
    33    14    21 1   
    34    14    22 1   
    35    14    25 1   
    36    15    27 1   
    37    15    28 2   
    38    16    18 ar  
    39    16    47 1   
    40    17    19 ar  
    41    17    48 1   
    42    18    20 ar  
    43    18    49 1   
    44    19    50 1   
    45    20    63 1   
    46    21    23 1   
    47    21    51 1   
    48    21    52 1   
    49    22    24 1   
    50    22    53 1   
    51    22    54 1   
    52    23    29 1   
    53    23    55 1   
    54    23    56 1   
    55    24    29 1   
    56    24    57 1   
    57    24    58 1   
    58    25    32 1   
    59    25    59 1   
    60    25    60 1   
    61    26    63 1   
    62    27    31 1   
    63    27    61 1   
    64    31    62 1   
    65    35    63 1   
    66    36    63 1   
@<TRIPOS>SUBSTRUCTURE
     1 3BX         1 TEMP              0 ****  ****    0 ROOT
