@<TRIPOS>MOLECULE
3BZ
   14    14     1     0     0
SMALL
bcc


@<TRIPOS>ATOM
      1 Cl3         0.0100   -0.0030    0.0190 cl        1 3BZ     -0.162400
      2 C3          1.7240   -0.0020    0.0090 ca        1 3BZ     -0.002600
      3 C4          2.4080   -0.0000    1.2280 ca        1 3BZ     -0.155000
      4 C5          3.8030    0.0010    1.2190 ca        1 3BZ     -0.157000
      5 C6          4.4990   -0.0000    0.0120 ca        1 3BZ     -0.107000
      6 C2          2.4120   -0.0030   -1.2050 ca        1 3BZ     -0.098000
      7 C1          3.8100   -0.0020   -1.2050 ca        1 3BZ     -0.119600
      8 C           4.5770   -0.0030   -2.5220 c         1 3BZ      0.908200
      9 O2          5.8390   -0.0020   -2.4660 o         1 3BZ     -0.826800
     10 O1          3.9090   -0.0060   -3.5940 o         1 3BZ     -0.826800
     11 H4          1.8580    0.0010    2.1780 ha        1 3BZ      0.117000
     12 H5          4.3500    0.0020    2.1720 ha        1 3BZ      0.109000
     13 H6          5.6010    0.0000   -0.0150 ha        1 3BZ      0.154000
     14 H2          1.8860   -0.0040   -2.1740 ha        1 3BZ      0.167000
@<TRIPOS>BOND
     1    1    2 1   
     2    2    3 ar  
     3    2    6 ar  
     4    3    4 ar  
     5    3   11 1   
     6    4    5 ar  
     7    4   12 1   
     8    5    7 ar  
     9    5   13 1   
    10    6    7 ar  
    11    6   14 1   
    12    7    8 1   
    13    8    9 1   
    14    8   10 1   
@<TRIPOS>SUBSTRUCTURE
     1 3BZ         1 TEMP              0 ****  ****    0 ROOT
