@<TRIPOS>MOLECULE
molecule
   14    14     1     0     0
SMALL
bcc


@<TRIPOS>ATOM
      1 Cl3          0.0000     0.0000     0.0000 cl         1 3BZ      -0.166400
      2 C3           1.7360     0.0000     0.0000 ca         1 3BZ       0.004400
      3 C4           2.4270     0.0000     1.2000 ca         1 3BZ      -0.151000
      4 C5           3.8110     0.0000     1.2090 ca         1 3BZ      -0.156000
      5 C6           4.5110    -0.0010     0.0220 ca         1 3BZ      -0.105000
      6 C2           2.4260    -0.0070    -1.1960 ca         1 3BZ      -0.087000
      7 C1           3.8220    -0.0020    -1.1930 ca         1 3BZ      -0.094600
      8 C            4.5660    -0.0020    -2.4690 c          1 3BZ       0.882200
      9 O2           5.7810    -0.0020    -2.4630 o          1 3BZ      -0.833300
     10 O1           3.8980    -0.0030    -3.6390 o          1 3BZ      -0.833300
     11 H4           1.8820     0.0010     2.1360 ha         1 3BZ       0.114000
     12 H5           4.3450     0.0000     2.1510 ha         1 3BZ       0.110000
     13 H6           5.5940     0.0010     0.0310 ha         1 3BZ       0.148000
     14 H2           1.8850    -0.0080    -2.1340 ha         1 3BZ       0.167000
@<TRIPOS>BOND
     1     1     2 1
     2     2     3 ar
     3     2     6 ar
     4     3     4 ar
     5     4     5 ar
     6     5     7 ar
     7     6     7 ar
     8     7     8 1
     9     8     9 1
    10     8    10 1
    11     3    11 1
    12     4    12 1
    13     5    13 1
    14     6    14 1
@<TRIPOS>SUBSTRUCTURE
     1 3BZ         1 TEMP              0 ****  ****    0 ROOT
