@<TRIPOS>MOLECULE
3C0
   47    50     1     0     0
SMALL
bcc


@<TRIPOS>ATOM
      1 C10          0.0000     0.0000     0.0000 c3         1 3C0       0.229400
      2 C13          2.2280     2.6470    -2.6170 c3         1 3C0       0.167100
      3 C15          1.2150     2.0860    -4.8280 c3         1 3C0       0.015500
      4 C17          2.4920     0.2100    -3.9080 cx         1 3C0       0.049100
      5 C22          3.3950     1.3600    -4.4110 c3         1 3C0       0.015500
      6 N19          2.5710     2.0490    -5.4390 n4         1 3C0       0.020200
      7 C14          1.2530     3.1240    -3.6970 c3         1 3C0      -0.061900
      8 C16          1.0520     0.6890    -4.1840 cx         1 3C0       0.049100
      9 O18          1.6340    -0.4300    -4.8540 op         1 3C0      -0.308600
     10 C23          3.5910     2.3470    -3.2480 c3         1 3C0      -0.061900
     11 O12          1.7090     1.4410    -1.9960 os         1 3C0      -0.410900
     12 C02          2.0330     1.2300    -0.7110 c          1 3C0       0.681100
     13 O01          2.7280     2.0250    -0.1240 o          1 3C0      -0.544000
     14 C03          1.5300     0.0000     0.0000 c3         1 3C0      -0.032400
     15 O11         -0.4760    -0.1180    -1.3420 oh         1 3C0      -0.624800
     16 C04          2.0320     0.0000     1.4210 ca         1 3C0      -0.117300
     17 C05          2.8270    -1.0360     1.8740 ca         1 3C0      -0.078000
     18 C06          3.2870    -1.0360     3.1770 ca         1 3C0      -0.092000
     19 C07          2.9530     0.0010     4.0280 ca         1 3C0      -0.076000
     20 C08          2.1580     1.0380     3.5760 ca         1 3C0      -0.092000
     21 C09          1.7030     1.0410     2.2710 ca         1 3C0      -0.078000
     22 H1          -0.3610     0.9260     0.4310 h1         1 3C0       0.011700
     23 H2          -0.3610    -0.8360     0.5860 h1         1 3C0       0.011700
     24 H3           2.3410     3.4200    -1.8660 h1         1 3C0       0.077700
     25 H4           0.4410     2.2960    -5.5570 hx         1 3C0       0.097700
     26 H5           2.5890    -0.1820    -2.9030 h1         1 3C0       0.148700
     27 H6           1.5420     0.9600    -6.9030 hx         1 3C0       0.078367
     28 H7           3.1930     0.4110    -6.5870 hx         1 3C0       0.078367
     29 H8           2.9160     1.9000    -7.5000 hx         1 3C0       0.078367
     30 H9           3.0750     3.9610    -4.7440 hx         1 3C0       0.078367
     31 H10          2.4210     3.9120    -6.3870 hx         1 3C0       0.078367
     32 H11          4.0740     3.3640    -6.0760 hx         1 3C0       0.078367
     33 H12          4.3350     1.0000    -4.8110 hx         1 3C0       0.097700
     34 H13          0.2630     3.2320    -3.2700 hc         1 3C0       0.066950
     35 H14          1.5850     4.0780    -4.0900 hc         1 3C0       0.066950
     36 H15          0.4170     0.5400    -3.3180 h1         1 3C0       0.148700
     37 H16          4.0290     3.2650    -3.6210 hc         1 3C0       0.066950
     38 H17          4.2460     1.9070    -2.5060 hc         1 3C0       0.066950
     39 H18          1.8920    -0.8850    -0.5100 hc         1 3C0       0.052700
     40 H19         -1.3460    -0.4810    -1.3360 ho         1 3C0       0.413000
     41 H20          3.0890    -1.8490     1.2070 ha         1 3C0       0.104000
     42 H21          3.9100    -1.8480     3.5320 ha         1 3C0       0.111500
     43 H22          3.3110     0.0000     5.0500 ha         1 3C0       0.111000
     44 H23          1.8980     1.8520     4.2420 ha         1 3C0       0.111500
     45 H24          1.0800     1.8530     1.9160 ha         1 3C0       0.104000
     46 C20          2.5550     1.2790    -6.6890 c3         1 3C0       0.005100
     47 C21          3.0680     3.4110    -5.6770 c3         1 3C0       0.005100
@<TRIPOS>BOND
     1     1    14 1   
     2     1    15 1   
     3     1    22 1   
     4     1    23 1   
     5     2     7 1   
     6     2    10 1   
     7     2    11 1   
     8     2    24 1   
     9     3     6 1   
    10     3     7 1   
    11     3     8 1   
    12     3    25 1   
    13     4     5 1   
    14     4     8 1   
    15     4     9 1   
    16     4    26 1   
    17     5     6 1   
    18     5    10 1   
    19     5    33 1   
    20     6    46 1   
    21     6    47 1   
    22     7    34 1   
    23     7    35 1   
    24     8     9 1   
    25     8    36 1   
    26    10    37 1   
    27    10    38 1   
    28    11    12 1   
    29    12    13 2   
    30    12    14 1   
    31    14    16 1   
    32    14    39 1   
    33    15    40 1   
    34    16    17 ar  
    35    16    21 ar  
    36    17    18 ar  
    37    17    41 1   
    38    18    19 ar  
    39    18    42 1   
    40    19    20 ar  
    41    19    43 1   
    42    20    21 ar  
    43    20    44 1   
    44    21    45 1   
    45    27    46 1   
    46    28    46 1   
    47    29    46 1   
    48    30    47 1   
    49    31    47 1   
    50    32    47 1   
@<TRIPOS>SUBSTRUCTURE
     1 3C0         1 TEMP              0 ****  ****    0 ROOT
