@<TRIPOS>MOLECULE
molecule
   47    50     1     0     0
SMALL
bcc


@<TRIPOS>ATOM
      1 C10          0.0000     0.0000     0.0000 c3         1 3C0       0.147400
      2 C13          2.2280     2.6470    -2.6170 c3         1 3C0       0.132100
      3 C15          1.2150     2.0860    -4.8280 c3         1 3C0       0.141500
      4 C17          2.4920     0.2100    -3.9080 cx         1 3C0       0.016100
      5 C22          3.3950     1.3600    -4.4110 c3         1 3C0       0.141500
      6 N19          2.5710     2.0490    -5.4390 n4         1 3C0      -0.588800
      7 C14          1.2530     3.1240    -3.6970 c3         1 3C0      -0.111900
      8 C16          1.0520     0.6890    -4.1840 cx         1 3C0       0.016100
      9 O18          1.6340    -0.4300    -4.8540 op         1 3C0      -0.317600
     10 C23          3.5910     2.3470    -3.2480 c3         1 3C0      -0.111900
     11 O12          1.7090     1.4410    -1.9960 os         1 3C0      -0.430900
     12 C02          2.0330     1.2300    -0.7110 c          1 3C0       0.622100
     13 O01          2.7280     2.0250    -0.1240 o          1 3C0      -0.511000
     14 C03          1.5300     0.0000     0.0000 c3         1 3C0      -0.057400
     15 O11         -0.4760    -0.1180    -1.3420 oh         1 3C0      -0.637800
     16 C04          2.0320     0.0000     1.4210 ca         1 3C0      -0.109300
     17 C05          2.8270    -1.0360     1.8740 ca         1 3C0      -0.102000
     18 C06          3.2870    -1.0360     3.1770 ca         1 3C0      -0.121500
     19 C07          2.9530     0.0010     4.0280 ca         1 3C0      -0.103000
     20 C08          2.1580     1.0380     3.5760 ca         1 3C0      -0.121500
     21 C09          1.7030     1.0410     2.2710 ca         1 3C0      -0.102000
     22 H1          -0.3610     0.9260     0.4310 h1         1 3C0       0.051200
     23 H2          -0.3610    -0.8360     0.5860 h1         1 3C0       0.051200
     24 H3           2.3410     3.4200    -1.8660 h1         1 3C0       0.111700
     25 H4           0.4410     2.2960    -5.5570 hx         1 3C0       0.125700
     26 H5           2.5890    -0.1820    -2.9030 h1         1 3C0       0.185700
     27 H6           1.5420     0.9600    -6.9030 hx         1 3C0       0.100367
     28 H7           3.1930     0.4110    -6.5870 hx         1 3C0       0.100367
     29 H8           2.9160     1.9000    -7.5000 hx         1 3C0       0.100367
     30 H9           3.0750     3.9610    -4.7440 hx         1 3C0       0.100367
     31 H10          2.4210     3.9120    -6.3870 hx         1 3C0       0.100367
     32 H11          4.0740     3.3640    -6.0760 hx         1 3C0       0.100367
     33 H12          4.3350     1.0000    -4.8110 hx         1 3C0       0.125700
     34 H13          0.2630     3.2320    -3.2700 hc         1 3C0       0.096700
     35 H14          1.5850     4.0780    -4.0900 hc         1 3C0       0.096700
     36 H15          0.4170     0.5400    -3.3180 h1         1 3C0       0.185700
     37 H16          4.0290     3.2650    -3.6210 hc         1 3C0       0.096700
     38 H17          4.2460     1.9070    -2.5060 hc         1 3C0       0.096700
     39 H18          1.8920    -0.8850    -0.5100 hc         1 3C0       0.088700
     40 H19         -1.3460    -0.4810    -1.3360 ho         1 3C0       0.422000
     41 H20          3.0890    -1.8490     1.2070 ha         1 3C0       0.129500
     42 H21          3.9100    -1.8480     3.5320 ha         1 3C0       0.142000
     43 H22          3.3110     0.0000     5.0500 ha         1 3C0       0.143000
     44 H23          1.8980     1.8520     4.2420 ha         1 3C0       0.142000
     45 H24          1.0800     1.8530     1.9160 ha         1 3C0       0.129500
     46 C20          2.5550     1.2790    -6.6890 c3         1 3C0       0.094600
     47 C21          3.0680     3.4110    -5.6770 c3         1 3C0       0.094600
@<TRIPOS>BOND
     1    19    18 ar
     2    19    20 ar
     3    18    17 ar
     4     9     8 1
     5     9     4 1
     6    20    21 ar
     7    17    16 ar
     8     8     4 1
     9     8     3 1
    10     4     5 1
    11    46     6 1
    12    21    16 ar
    13    16    14 1
    14     3     6 1
    15     3     7 1
    16     6     5 1
    17     6    47 1
    18     5    10 1
    19    14     1 1
    20    14    12 1
    21    11     2 1
    22    11    12 1
    23     7     2 1
    24    10     2 1
    25     1    15 1
    26    12    13 2
    27     1    22 1
    28     1    23 1
    29     2    24 1
    30     3    25 1
    31     4    26 1
    32    46    27 1
    33    46    28 1
    34    46    29 1
    35    47    30 1
    36    47    31 1
    37    47    32 1
    38     5    33 1
    39     7    34 1
    40     7    35 1
    41     8    36 1
    42    10    37 1
    43    10    38 1
    44    14    39 1
    45    15    40 1
    46    17    41 1
    47    18    42 1
    48    19    43 1
    49    20    44 1
    50    21    45 1
@<TRIPOS>SUBSTRUCTURE
     1 3C0         1 TEMP              0 ****  ****    0 ROOT
