@<TRIPOS>MOLECULE
3C1
   25    26     1     0     0
SMALL
bcc


@<TRIPOS>ATOM
      1 C1           0.0000     0.0000     0.0000 ca         1 3C1       0.554200
      2 N1           1.3220     0.0000     0.0000 nb         1 3C1      -0.635000
      3 O1          -2.8320     1.3850     0.7980 o          1 3C1      -0.573300
      4 C2           2.0090     0.0000     1.1260 ca         1 3C1       0.487200
      5 N2          -2.8820    -0.1230     2.7800 n7         1 3C1      -0.574100
      6 O2          -2.9180    -1.0990     0.4900 o          1 3C1      -0.573300
      7 C3           1.3770    -0.0110     2.3500 ca         1 3C1      -0.327300
      8 N3          -0.6400    -0.0720     3.6300 nh         1 3C1      -0.366000
      9 C4          -0.7000     0.0010     1.1840 ca         1 3C1      -0.306800
     10 C5          -1.9630     0.5320     3.7360 c3         1 3C1       0.389000
     11 C6          -0.0230    -0.0230     2.3980 ca         1 3C1       0.147600
     12 C7           0.2510     0.4260     4.6870 c3         1 3C1       0.132800
     13 C8           0.5160     1.9160     4.4680 c3         1 3C1      -0.042100
     14 S1          -2.4670     0.0630     1.1710 sy         1 3C1       1.042200
     15 H1          -0.5370    -0.0000    -0.9410 h4         1 3C1      -0.011900
     16 H2           3.0920     0.0000     1.0880 h4         1 3C1      -0.023900
     17 H3          -3.6890    -0.6360     3.0730 hn         1 3C1       0.360800
     18 H4           1.9560    -0.0110     3.2650 ha         1 3C1       0.138000
     19 H5          -1.8870     1.5820     3.4830 h2         1 3C1       0.027700
     20 H6          -2.3370     0.3780     4.7400 h2         1 3C1       0.027700
     21 H7           1.1880    -0.1160     4.6540 h1         1 3C1       0.037200
     22 H8          -0.2170     0.2810     5.6530 h1         1 3C1       0.037200
     23 H9          -0.1760     2.4980     5.0660 hc         1 3C1       0.017033
     24 H10          1.5320     2.1490     4.7640 hc         1 3C1       0.017033
     25 H11          0.3810     2.1580     3.4210 hc         1 3C1       0.017033
@<TRIPOS>BOND
     1     1     2 ar  
     2     1     9 ar  
     3     1    15 1   
     4     2     4 ar  
     5     3    14 2   
     6     4     7 ar  
     7     4    16 1   
     8     5    10 1   
     9     5    14 1   
    10     5    17 1   
    11     6    14 2   
    12     7    11 ar  
    13     7    18 1   
    14     8    10 1   
    15     8    11 1   
    16     8    12 1   
    17     9    11 ar  
    18     9    14 1   
    19    10    19 1   
    20    10    20 1   
    21    12    13 1   
    22    12    21 1   
    23    12    22 1   
    24    13    23 1   
    25    13    24 1   
    26    13    25 1   
@<TRIPOS>SUBSTRUCTURE
     1 3C1         1 TEMP              0 ****  ****    0 ROOT
