@<TRIPOS>MOLECULE
3C2
   25    26     1     0     0
SMALL
bcc


@<TRIPOS>ATOM
      1 CAH          0.0000     0.0000     0.0000 c3         1 3C2       0.386000
      2 NAJ          1.4780     0.0000     0.0000 n7         1 3C2      -0.578100
      3 SAN          2.1760     0.0000     1.5180 sy         1 3C2       0.968800
      4 OAB          2.0570     1.3210     2.0280 o          1 3C2      -0.565300
      5 OAC          3.4130    -0.6910     1.4040 o          1 3C2      -0.565300
      6 CAL          1.0990    -1.0230     2.4820 ca         1 3C2       0.281200
      7 NAI          1.4440    -1.3410     3.7130 nb         1 3C2      -0.447000
      8 CAE          0.6740    -2.0860     4.4830 ca         1 3C2       0.341200
      9 CAD         -0.5380    -2.5580     4.0150 ca         1 3C2      -0.137300
     10 CAF         -0.9330    -2.2530     2.7260 ca         1 3C2      -0.170000
     11 CAK         -0.0910    -1.4700     1.9270 ca         1 3C2      -0.005700
     12 NAM         -0.4820    -1.2270     0.6190 nh         1 3C2      -0.364000
     13 CAG         -1.9390    -1.3530     0.4740 c3         1 3C2       0.131800
     14 CAA         -2.6290    -0.2510     1.2790 c3         1 3C2      -0.042100
     15 HAH1        -0.3600     0.0550    -1.0200 h2         1 3C2       0.024700
     16 HAH2        -0.3600     0.8530     0.5620 h2         1 3C2       0.024700
     17 HAJ1         2.0180     0.0010    -0.8430 hn         1 3C2       0.360800
     18 HAE1         0.9890    -2.3210     5.4920 h4         1 3C2      -0.011900
     19 HAD1        -1.1680    -3.1690     4.6500 ha         1 3C2       0.110000
     20 HAF1        -1.8790    -2.6140     2.3400 ha         1 3C2       0.134000
     21 HAG1        -2.2560    -2.3210     0.8420 h1         1 3C2       0.036200
     22 HAG2        -2.2070    -1.2590    -0.5710 h1         1 3C2       0.036200
     23 HAA1        -2.8420     0.5910     0.6310 hc         1 3C2       0.017033
     24 HAA2        -1.9790     0.0690     2.0850 hc         1 3C2       0.017033
     25 HAA3        -3.5560    -0.6320     1.6920 hc         1 3C2       0.017033
@<TRIPOS>BOND
     1     1     2 1   
     2     1    12 1   
     3     1    15 1   
     4     1    16 1   
     5     2     3 1   
     6     2    17 1   
     7     3     4 2   
     8     3     5 2   
     9     3     6 1   
    10     6     7 ar  
    11     6    11 ar  
    12     7     8 ar  
    13     8     9 ar  
    14     8    18 1   
    15     9    10 ar  
    16     9    19 1   
    17    10    11 ar  
    18    10    20 1   
    19    11    12 1   
    20    12    13 1   
    21    13    14 1   
    22    13    21 1   
    23    13    22 1   
    24    14    23 1   
    25    14    24 1   
    26    14    25 1   
@<TRIPOS>SUBSTRUCTURE
     1 3C2         1 TEMP              0 ****  ****    0 ROOT
