@<TRIPOS>MOLECULE
3C3
   37    39     1     0     0
SMALL
bcc


@<TRIPOS>ATOM
      1 N16          0.0000     0.0000     0.0000 nz         1 3C3       0.382000
      2 C8           1.3850     0.0000     0.0000 cc         1 3C3      -0.512700
      3 N10          2.1820     0.0000     1.1300 na         1 3C3       0.211300
      4 O14          3.5380    -0.0000     0.7140 os         1 3C3      -0.278400
      5 N12          3.5250    -0.0070    -0.7060 na         1 3C3       0.264300
      6 C4           2.1650    -0.0000    -1.1060 cd         1 3C3      -0.156800
      7 C1           1.6830     0.0000    -2.4870 cd         1 3C3       0.320000
      8 N3           0.6520    -0.6870    -2.9550 nc         1 3C3      -0.783000
      9 N7           2.2100     0.7170    -3.5220 na         1 3C3       0.447600
     10 C18          3.3610     1.6220    -3.4670 c3         1 3C3      -0.036700
     11 C19          2.8810     3.0370    -3.1430 c3         1 3C3      -0.039400
     12 C20          4.0830     3.9830    -3.0850 c3         1 3C3       0.014900
     13 N5           1.4350     0.4090    -4.6520 nd         1 3C3      -0.577800
     14 C2           0.5060    -0.4420    -4.2650 cc         1 3C3       0.618500
     15 C6          -0.5290    -1.0290    -5.1340 cc         1 3C3      -0.128800
     16 N13         -0.6910    -0.7660    -6.5170 na         1 3C3       0.300300
     17 O15         -1.7970    -1.5380    -6.9600 os         1 3C3      -0.287400
     18 N11         -2.2790    -2.2370    -5.8240 na         1 3C3       0.194300
     19 C9          -1.4790    -1.8980    -4.7410 cd         1 3C3      -0.542700
     20 N17         -1.6370    -2.3810    -3.4470 nz         1 3C3       0.383000
     21 H161        -0.3340     0.6920    -0.6410 hn         1 3C3       0.194800
     22 H162        -0.3340     0.2100     0.9200 hn         1 3C3       0.194800
     23 H10          1.8590     0.0040     2.0770 hn         1 3C3       0.203700
     24 H12          4.3240    -0.0090    -1.3080 hn         1 3C3       0.206700
     25 H181         3.8660     1.6220    -4.4260 h1         1 3C3       0.059200
     26 H182         4.0470     1.2880    -2.6990 h1         1 3C3       0.059200
     27 H191         2.3760     3.0370    -2.1850 hc         1 3C3       0.022700
     28 H192         2.1960     3.3720    -3.9120 hc         1 3C3       0.022700
     29 H201         3.7420     4.9880    -2.8690 hc         1 3C3       0.021367
     30 H202         4.7620     3.6570    -2.3060 hc         1 3C3       0.021367
     31 H203         4.5970     3.9730    -4.0390 hc         1 3C3       0.021367
     32 H13         -0.1270    -0.1580    -7.0770 hn         1 3C3       0.210700
     33 H11         -3.0570    -2.8660    -5.8070 hn         1 3C3       0.200700
     34 H171        -0.7720    -2.7720    -3.1290 hn         1 3C3       0.190800
     35 H172        -2.3450    -3.0880    -3.4390 hn         1 3C3       0.190800
     36 H163        -0.3340    -0.9060    -0.2650 hn         1 3C3       0.194800
     37 H173        -1.8980    -1.6300    -2.8390 hn         1 3C3       0.190800
@<TRIPOS>BOND
     1     1     2 1   
     2     1    21 1   
     3     1    22 1   
     4     1    36 1   
     5     2     3 1   
     6     2     6 2   
     7     3     4 1   
     8     3    23 1   
     9     4     5 1   
    10     5     6 1   
    11     5    24 1   
    12     6     7 1   
    13     7     8 2   
    14     7     9 1   
    15     8    14 1   
    16     9    10 1   
    17     9    13 1   
    18    10    11 1   
    19    10    25 1   
    20    10    26 1   
    21    11    12 1   
    22    11    27 1   
    23    11    28 1   
    24    12    29 1   
    25    12    30 1   
    26    12    31 1   
    27    13    14 2   
    28    14    15 1   
    29    15    16 1   
    30    15    19 2   
    31    16    17 1   
    32    16    32 1   
    33    17    18 1   
    34    18    19 1   
    35    18    33 1   
    36    19    20 1   
    37    20    34 1   
    38    20    35 1   
    39    20    37 1   
@<TRIPOS>SUBSTRUCTURE
     1 3C3         1 TEMP              0 ****  ****    0 ROOT
