@<TRIPOS>MOLECULE
molecule
   18    18     1     0     0
SMALL
bcc


@<TRIPOS>ATOM
      1 O2           0.0000     0.0000     0.0000 o          1 3C4      -0.841300
      2 C            1.2090     0.0000     0.0000 c          1 3C4       0.892600
      3 O1           1.8800     0.0000     1.1630 o          1 3C4      -0.841300
      4 CG           1.9620     0.0010    -1.3060 c3         1 3C4      -0.155100
      5 CA           0.9830     0.0010    -2.4500 ca         1 3C4       0.000700
      6 CD2          0.5340     1.1990    -2.9740 ca         1 3C4      -0.111000
      7 CE2         -0.3640     1.2020    -4.0240 ca         1 3C4      -0.152000
      8 CZ          -0.8160     0.0030    -4.5530 ca         1 3C4       0.068100
      9 OH          -1.6990     0.0030    -5.5870 oh         1 3C4      -0.527100
     10 CE1         -0.3630    -1.2000    -4.0260 ca         1 3C4       0.012400
     11 CD1          0.5400    -1.1970    -2.9790 ca         1 3C4      -0.107000
     12 HG1          2.5840     0.8860    -1.3630 hc         1 3C4       0.043200
     13 HG2          2.5860    -0.8830    -1.3630 hc         1 3C4       0.043200
     14 HD2          0.8860     2.1360    -2.5610 ha         1 3C4       0.135000
     15 HE2         -0.7150     2.1410    -4.4340 ha         1 3C4       0.124000
     16 HOH         -2.5760     0.0920    -5.2510 ho         1 3C4       0.409000
     17 HD1          0.8940    -2.1340    -2.5670 ha         1 3C4       0.146000
     18 Cl          -0.9260    -2.7050    -4.6850 cl         1 3C4      -0.140400
@<TRIPOS>BOND
     1     1     2 1
     2     2     3 1
     3     2     4 1
     4     4     5 1
     5     4    12 1
     6     4    13 1
     7     5     6 ar
     8     5    11 ar
     9     6     7 ar
    10     6    14 1
    11     7     8 ar
    12     7    15 1
    13     8     9 1
    14     8    10 ar
    15     9    16 1
    16    18    10 1
    17    10    11 ar
    18    11    17 1
@<TRIPOS>SUBSTRUCTURE
     1 3C4         1 TEMP              0 ****  ****    0 ROOT
