@<TRIPOS>MOLECULE
3C4
   18    19     1     0     0
SMALL
bcc


@<TRIPOS>ATOM
      1 O2          0.1800   -1.2460   -1.1970 os        1 3C4     -0.145000
      2 C           1.1780   -0.6510   -0.4900 c2        1 3C4      0.286000
      3 O1          1.2720   -0.9300    0.7120 o         1 3C4     -0.410000
      4 CG          2.0300    0.2590   -1.3450 c3        1 3C4     -0.189000
      5 CA          1.3470    0.2110   -2.7190 c3        1 3C4      0.022000
      6 CD2         0.6400    1.5110   -3.0600 c2        1 3C4     -0.085000
      7 CE2        -0.3470    1.3590   -3.9320 c1        1 3C4     -0.372000
      8 CZ         -1.0370    0.2720   -4.3020 c2        1 3C4      0.071000
      9 OH         -1.7790    0.1440   -5.4380 oh        1 3C4     -0.236000
     10 CE1        -0.9340   -0.9120   -3.3330 c3        1 3C4      0.168000
     11 CD1         0.2570   -0.8000   -2.5490 c2        1 3C4     -0.493000
     12 HG1         3.0710   -0.1390   -1.3940 hc        1 3C4      0.094000
     13 HG2         2.0560    1.2860   -0.9090 hc        1 3C4      0.094000
     14 HD2         2.0750   -0.0720   -3.5210 hc        1 3C4      0.077000
     15 HE2         0.8550    2.4190   -2.4900 ha        1 3C4      0.111000
     16 HOH        -1.3800    0.7240   -6.1040 ho        1 3C4      0.200000
     17 HD1        -1.8640   -1.1160   -2.7560 h1        1 3C4      0.104000
     18 CL         -0.8630   -2.4140   -4.4270 cl        1 3C4     -0.295000
@<TRIPOS>BOND
     1    1    2 1   
     2    1   11 1   
     3    2    3 1   
     4    2    4 1   
     5    4    5 1   
     6    4   12 1   
     7    4   13 1   
     8    5    6 1   
     9    5   11 1   
    10    5   14 1   
    11    6    7 1   
    12    6   15 1   
    13    7    8 1   
    14    8    9 1   
    15    8   10 1   
    16    9   16 1   
    17   10   11 1   
    18   10   17 1   
    19   10   18 1   
@<TRIPOS>SUBSTRUCTURE
     1 3C4         1 TEMP              0 ****  ****    0 ROOT
