@<TRIPOS>MOLECULE
molecule
   29    30     1     0     0
SMALL
bcc


@<TRIPOS>ATOM
      1 C10          0.0000     0.0000     0.0000 cp         1 3C5      -0.156300
      2 C01          0.9180     1.4190    -6.6990 c3         1 3C5       0.146100
      3 N02          0.2020     1.3800    -5.4180 n7         1 3C5      -0.815200
      4 C04         -0.7800    -0.0030    -3.6780 ca         1 3C5      -0.082300
      5 C09         -0.0730    -0.0020    -2.4920 ca         1 3C5      -0.094000
      6 C08         -0.7550    -0.0010    -1.2780 cp         1 3C5      -0.036000
      7 C07         -2.1490    -0.0020    -1.2660 ca         1 3C5      -0.118000
      8 C06         -2.8450    -0.0020    -2.4570 ca         1 3C5      -0.126000
      9 C05         -2.1630     0.0020    -3.6610 ca         1 3C5      -0.123000
     10 C15          1.3930     0.0000     0.0000 ca         1 3C5       0.427200
     11 N14          2.0650     0.0000     1.1330 nb         1 3C5      -0.687000
     12 C13          1.4550     0.0010     2.3030 ca         1 3C5       0.417200
     13 C12          0.0750     0.0010     2.3870 ca         1 3C5      -0.252300
     14 C11         -0.6760     0.0060     1.2230 ca         1 3C5      -0.088000
     15 H1           1.0860     2.4500    -6.9880 h1         1 3C5       0.031700
     16 H2           0.3260     0.9230    -7.4590 h1         1 3C5       0.031700
     17 H3           1.8700     0.9130    -6.5960 h1         1 3C5       0.031700
     18 H4          -0.6720     1.8610    -5.5090 hn         1 3C5       0.355800
     19 H6           0.9030    -0.5190    -4.8760 h1         1 3C5       0.038700
     20 H7          -0.6410    -0.5110    -5.7400 h1         1 3C5       0.038700
     21 H8           1.0080    -0.0670    -2.5060 ha         1 3C5       0.139000
     22 H9          -2.6840    -0.0050    -0.3250 ha         1 3C5       0.131000
     23 H10         -3.9290     0.0000    -2.4500 ha         1 3C5       0.131000
     24 H11         -2.7140     0.0020    -4.5940 ha         1 3C5       0.128000
     25 H12          1.9290    -0.0010    -0.9410 h4         1 3C5       0.028100
     26 H13          2.0440    -0.0010     3.2120 h4         1 3C5       0.022100
     27 H14         -0.4140     0.0040     3.3540 ha         1 3C5       0.138000
     28 H15         -1.7580     0.0070     1.2600 ha         1 3C5       0.140000
     29 C03         -0.0440    -0.0040    -4.9920 c3         1 3C5       0.202100
@<TRIPOS>BOND
     1     2     3 1
     2    13    14 ar
     3    13    12 ar
     4    29     3 1
     5    29     4 1
     6    14     1 ar
     7    12    11 ar
     8     5     4 ar
     9     5     6 ar
    10     4     9 ar
    11     1     6 1
    12     1    10 ar
    13    11    10 ar
    14     6     7 ar
    15     9     8 ar
    16     7     8 ar
    17     2    15 1
    18     2    16 1
    19     2    17 1
    20     3    18 1
    21    29    19 1
    22    29    20 1
    23     5    21 1
    24     7    22 1
    25     8    23 1
    26     9    24 1
    27    10    25 1
    28    12    26 1
    29    13    27 1
    30    14    28 1
@<TRIPOS>SUBSTRUCTURE
     1 3C5         1 TEMP              0 ****  ****    0 ROOT
