@<TRIPOS>MOLECULE
3C5
   29    30     1     0     0
SMALL
bcc


@<TRIPOS>ATOM
      1 C10          0.0000     0.0000     0.0000 cp         1 3C5      -0.146300
      2 C01          0.9180     1.4190    -6.6990 c3         1 3C5       0.178100
      3 N02          0.2020     1.3800    -5.4180 n7         1 3C5      -0.581200
      4 C04         -0.7800    -0.0030    -3.6780 ca         1 3C5      -0.090300
      5 C09         -0.0730    -0.0020    -2.4920 ca         1 3C5      -0.073000
      6 C08         -0.7550    -0.0010    -1.2780 cp         1 3C5      -0.031000
      7 C07         -2.1490    -0.0020    -1.2660 ca         1 3C5      -0.098000
      8 C06         -2.8450    -0.0020    -2.4570 ca         1 3C5      -0.097000
      9 C05         -2.1630     0.0020    -3.6610 ca         1 3C5      -0.095000
     10 C15          1.3930     0.0000     0.0000 ca         1 3C5       0.404200
     11 N14          2.0650     0.0000     1.1330 nb         1 3C5      -0.579000
     12 C13          1.4550     0.0010     2.3030 ca         1 3C5       0.400200
     13 C12          0.0750     0.0010     2.3870 ca         1 3C5      -0.218300
     14 C11         -0.6760     0.0060     1.2230 ca         1 3C5      -0.070000
     15 H1           1.0860     2.4500    -6.9880 h1         1 3C5      -0.001633
     16 H2           0.3260     0.9230    -7.4590 h1         1 3C5      -0.001633
     17 H3           1.8700     0.9130    -6.5960 h1         1 3C5      -0.001633
     18 H4          -0.6720     1.8610    -5.5090 hn         1 3C5       0.253800
     19 H6           0.9030    -0.5190    -4.8760 h1         1 3C5       0.009700
     20 H7          -0.6410    -0.5110    -5.7400 h1         1 3C5       0.009700
     21 H8           1.0080    -0.0670    -2.5060 ha         1 3C5       0.118000
     22 H9          -2.6840    -0.0050    -0.3250 ha         1 3C5       0.110000
     23 H10         -3.9290     0.0000    -2.4500 ha         1 3C5       0.103000
     24 H11         -2.7140     0.0020    -4.5940 ha         1 3C5       0.103000
     25 H12          1.9290    -0.0010    -0.9410 h4         1 3C5      -0.010900
     26 H13          2.0440    -0.0010     3.2120 h4         1 3C5      -0.020900
     27 H14         -0.4140     0.0040     3.3540 ha         1 3C5       0.112000
     28 H15         -1.7580     0.0070     1.2600 ha         1 3C5       0.116000
     29 C03         -0.0440    -0.0040    -4.9920 c3         1 3C5       0.200100
@<TRIPOS>BOND
     1     1     6 1   
     2     1    10 ar  
     3     1    14 ar  
     4     2     3 1   
     5     2    15 1   
     6     2    16 1   
     7     2    17 1   
     8     3    18 1   
     9     3    29 1   
    10     4     5 ar  
    11     4     9 ar  
    12     4    29 1   
    13     5     6 ar  
    14     5    21 1   
    15     6     7 ar  
    16     7     8 ar  
    17     7    22 1   
    18     8     9 ar  
    19     8    23 1   
    20     9    24 1   
    21    10    11 ar  
    22    10    25 1   
    23    11    12 ar  
    24    12    13 ar  
    25    12    26 1   
    26    13    14 ar  
    27    13    27 1   
    28    14    28 1   
    29    19    29 1   
    30    20    29 1   
@<TRIPOS>SUBSTRUCTURE
     1 3C5         1 TEMP              0 ****  ****    0 ROOT
