@<TRIPOS>MOLECULE
molecule
   48    49     1     0     0
SMALL
bcc


@<TRIPOS>ATOM
      1 CAA          0.0000     0.0000     0.0000 ca         1 3C6      -0.068000
      2 CAB          1.3840     0.0000     0.0000 ca         1 3C6      -0.246300
      3 CAC          2.0620     0.0000     1.2060 ca         1 3C6       0.450200
      4 NAD          1.4090    -0.0020     2.3520 nb         1 3C6      -0.680000
      5 CAE          0.0930    -0.0030     2.4030 ca         1 3C6       0.443200
      6 CAF         -0.6630     0.0040     1.2320 cp         1 3C6      -0.206300
      7 CAG         -2.1440     0.0040     1.2910 cp         1 3C6       0.043000
      8 CAH         -2.8880     0.0050     0.1100 ca         1 3C6      -0.131500
      9 CAI         -4.2640     0.0050     0.1630 ca         1 3C6      -0.071000
     10 CAL         -2.7930    -0.0030     2.5250 ca         1 3C6      -0.131500
     11 CAK         -4.1680    -0.0030     2.5810 ca         1 3C6      -0.071000
     12 CAJ         -4.9140     0.0040     1.3990 ca         1 3C6      -0.186600
     13 CAM         -6.3910     0.0050     1.4570 c          1 3C6       0.689700
     14 OAX         -7.0390     0.0050     0.4300 o          1 3C6      -0.592100
     15 N           -7.0180     0.0030     2.6510 ns         1 3C6      -0.580900
     16 CA          -8.4810     0.0040     2.7080 c3         1 3C6       0.052700
     17 C           -8.9880     1.4190     2.6060 c          1 3C6       0.448100
     18 O           -8.2040     2.3380     2.4950 o          1 3C6      -0.356100
     19 NAW        -10.3130     1.6650     2.6370 nz         1 3C6      -0.684400
     20 CB          -8.9400    -0.6070     4.0350 c3         1 3C6      -0.103400
     21 CG          -8.5330    -2.0820     4.0840 c3         1 3C6      -0.069400
     22 CD          -8.9920    -2.6920     5.4100 c3         1 3C6      -0.115400
     23 CE          -8.5850    -4.1650     5.4600 c3         1 3C6       0.097800
     24 NZ          -9.0250    -4.7530     6.7330 nz         1 3C6      -0.810600
     25 H1          -0.5550     0.0030    -0.9300 ha         1 3C6       0.143000
     26 H2           1.9310    -0.0010    -0.9350 ha         1 3C6       0.155000
     27 H3           3.1450     0.0000     1.2080 h4         1 3C6       0.041100
     28 H4          -0.4070    -0.0020     3.3640 h4         1 3C6       0.019100
     29 H5          -2.3830     0.0060    -0.8480 ha         1 3C6       0.154000
     30 H6          -4.8420     0.0080    -0.7530 ha         1 3C6       0.133500
     31 H7          -2.2140    -0.0080     3.4400 ha         1 3C6       0.154000
     32 H8          -4.6710    -0.0060     3.5400 ha         1 3C6       0.133500
     33 H9          -6.4840     0.0550     3.4960 hn         1 3C6       0.340500
     34 H10         -8.8750    -0.5810     1.8860 h1         1 3C6       0.125700
     35 H11        -10.8080     0.8750     2.2710 hn         1 3C6       0.479133
     36 H12        -10.6000     1.8300     3.5810 hn         1 3C6       0.479133
     37 H13         -8.4750    -0.0760     4.8570 hc         1 3C6       0.056200
     38 H14        -10.0170    -0.5270     4.1160 hc         1 3C6       0.056200
     39 H15         -8.9980    -2.6120     3.2620 hc         1 3C6       0.077700
     40 H16         -7.4560    -2.1620     4.0030 hc         1 3C6       0.077700
     41 H17         -8.5270    -2.1610     6.2320 hc         1 3C6       0.068700
     42 H18        -10.0690    -2.6120     5.4920 hc         1 3C6       0.068700
     43 H19         -7.5070    -4.2450     5.3790 hx         1 3C6       0.119700
     44 H20         -9.0490    -4.6960     4.6380 hx         1 3C6       0.119700
     45 H21         -8.7590    -5.7170     6.7660 hn         1 3C6       0.464467
     46 H22        -10.0200    -4.6790     6.8080 hn         1 3C6       0.464467
     47 HAW3       -10.5160     2.4720     2.0810 hn         1 3C6       0.479133
     48 HZ3         -8.5970    -4.2610     7.4930 hn         1 3C6       0.464467
@<TRIPOS>BOND
     1    14    13 2   
     2     9     8 ar  
     3     9    12 ar  
     4     8     7 ar  
     5    18    17 2   
     6    13    12 1   
     7    13    15 1   
     8    24    23 1   
     9    12    11 ar  
    10    17    16 1   
    11    17    19 1   
    12    16    15 1   
    13    16    20 1   
    14    22    23 1   
    15    22    21 1   
    16     5     4 ar  
    17     5     6 ar  
    18     7     6 1   
    19     7    10 ar  
    20     4     3 ar  
    21     6     1 ar  
    22    11    10 ar  
    23    20    21 1   
    24     3     2 ar  
    25     1     2 ar  
    26     1    25 1   
    27     2    26 1   
    28     3    27 1   
    29     5    28 1   
    30     8    29 1   
    31     9    30 1   
    32    10    31 1   
    33    11    32 1   
    34    15    33 1   
    35    16    34 1   
    36    19    35 1   
    37    19    36 1   
    38    20    37 1   
    39    20    38 1   
    40    21    39 1   
    41    21    40 1   
    42    22    41 1   
    43    22    42 1   
    44    23    43 1   
    45    23    44 1   
    46    24    45 1   
    47    24    46 1   
    48    47    19 1   
    49    48    24 1   
@<TRIPOS>SUBSTRUCTURE
     1 3C6         1 TEMP              0 ****  ****    0 ROOT
