@<TRIPOS>MOLECULE
molecule
   23    24     1     0     0
SMALL
bcc


@<TRIPOS>ATOM
      1 C12          0.0000     0.0000     0.0000 c3         1 3C7       0.098700
      2 O11          1.7580     1.4160    -2.0110 o          1 3C7      -0.819300
      3 C09          2.0510     1.2290    -0.7150 c          1 3C7       0.891600
      4 O10          2.7220     2.0410    -0.1240 o          1 3C7      -0.819300
      5 C08          1.5520     0.0000     0.0000 c3         1 3C7       0.050500
      6 N07          2.0590     0.0000     1.3830 n3         1 3C7      -0.691600
      7 C03          3.4300    -0.5710     1.3760 c3         1 3C7       0.334600
      8 C02          4.4750     0.5380     1.2470 c3         1 3C7       0.050700
      9 S01          4.3220     1.6800     2.6470 sh         1 3C7      -0.355900
     10 S13         -0.3170    -1.1430     1.4100 ss         1 3C7      -0.513200
     11 C06          1.1560    -0.6120     2.3610 c3         1 3C7       0.313600
     12 C05          1.7700    -1.8250     3.0850 c3         1 3C7       0.026700
     13 S04          3.5610    -1.3960     3.0140 ss         1 3C7      -0.408200
     14 H122        -0.3910     0.9900     0.2040 h1         1 3C7       0.084200
     15 H121        -0.3910    -0.4040    -0.9260 h1         1 3C7       0.084200
     16 H08          1.9080    -0.8870    -0.5100 h1         1 3C7       0.037700
     17 H03          3.5340    -1.2960     0.5780 h2         1 3C7       0.061700
     18 H021         4.3160     1.0780     0.3210 h1         1 3C7       0.086700
     19 H022         5.4670     0.1010     1.2430 h1         1 3C7       0.086700
     20 HS01         5.5010     2.2390     2.8930 hs         1 3C7       0.157800
     21 H06          0.8630     0.1310     3.0920 h2         1 3C7       0.095700
     22 H052         1.5690    -2.7420     2.5440 h1         1 3C7       0.073700
     23 H051         1.4240    -1.8810     4.1100 h1         1 3C7       0.073700
@<TRIPOS>BOND
     1     4     3 1   
     2     3     5 1   
     3     3     2 1   
     4     9     8 1   
     5     5     1 1   
     6     5     6 1   
     7     1    10 1   
     8     6     7 1   
     9     6    11 1   
    10     8     7 1   
    11     7    13 1   
    12    10    11 1   
    13    11    12 1   
    14    13    12 1   
    15     1    14 1   
    16     1    15 1   
    17     5    16 1   
    18     7    17 1   
    19     8    18 1   
    20     8    19 1   
    21     9    20 1   
    22    11    21 1   
    23    12    22 1   
    24    12    23 1   
@<TRIPOS>SUBSTRUCTURE
     1 3C7         1 TEMP              0 ****  ****    0 ROOT
