@<TRIPOS>MOLECULE
3C8
   42    45     1     0     0
SMALL
bcc


@<TRIPOS>ATOM
      1 C14          0.0000     0.0000     0.0000 ca         1 3C8       0.493200
      2 C11         -0.2630     1.1420    -2.0420 c3         1 3C8       0.142800
      3 C7          -4.3350    -0.1150    -2.1310 cc         1 3C8       0.374600
      4 C8          -2.8450    -0.1360    -2.3460 c3         1 3C8      -0.062000
      5 C9          -2.4430     1.0280    -3.2550 c3         1 3C8      -0.029400
      6 C10         -0.9200     1.0350    -3.4190 c3         1 3C8      -0.025400
      7 C13         -2.1320     0.0050    -0.9990 c3         1 3C8       0.140800
      8 C3          -6.4710    -0.7410    -2.1090 cd         1 3C8      -0.266300
      9 C2          -5.2270    -1.1390    -2.4640 cc         1 3C8      -0.308600
     10 N4          -6.3700     0.4910    -1.5690 na         1 3C8       0.449400
     11 N6          -5.0190     0.8630    -1.5940 nd         1 3C8      -0.659800
     12 N12         -0.6780     0.0050    -1.2110 nh         1 3C8      -0.464300
     13 C15          1.4020     0.0000     0.0000 ca         1 3C8      -0.217300
     14 C16          2.0830     0.0000     1.1820 ca         1 3C8      -0.094300
     15 C17          1.3390     0.0010     2.3770 ca         1 3C8       0.259300
     16 C18         -0.0730     0.0010     2.3070 ca         1 3C8       0.161000
     17 N19         -0.6870     0.0000     1.1250 nb         1 3C8      -0.594000
     18 C20         -0.7970     0.0010     3.5260 ca         1 3C8       0.492900
     19 N21         -0.1150     0.0000     4.6620 nb         1 3C8      -0.638000
     20 C22          1.2080     0.0000     4.6750 ca         1 3C8       0.621900
     21 N23          1.9300     0.0010     3.5800 nb         1 3C8      -0.605000
     22 N24         -2.1780     0.0010     3.5290 nv         1 3C8      -0.637500
     23 H1          -0.5700     2.0660    -1.5670 h1         1 3C8       0.018200
     24 H2           0.8140     1.1300    -2.1560 h1         1 3C8       0.018200
     25 H3          -2.5550    -1.0710    -2.8100 hc         1 3C8       0.042700
     26 H4          -2.7620     1.9620    -2.8070 hc         1 3C8       0.025200
     27 H6          -2.9100     0.9070    -4.2250 hc         1 3C8       0.025200
     28 H7          -0.6270     1.8840    -4.0250 hc         1 3C8       0.020700
     29 H8          -0.6050     0.1170    -3.8990 hc         1 3C8       0.020700
     30 H9          -2.4270     0.9360    -0.5320 h1         1 3C8       0.038700
     31 H10         -2.4020    -0.8270    -0.3600 h1         1 3C8       0.038700
     32 H11         -7.3840    -1.3110    -2.2350 h4         1 3C8       0.145000
     33 H12         -5.7640    -3.0460    -3.2460 hc         1 3C8       0.002367
     34 H13         -4.1760    -2.9910    -2.4670 hc         1 3C8       0.002367
     35 H14         -4.4020    -2.2720    -4.0680 hc         1 3C8       0.002367
     36 H5          -7.1260     1.0430    -1.2140 hn         1 3C8       0.146700
     37 H15          1.9440    -0.0600    -0.9360 ha         1 3C8       0.125000
     38 H16          3.1670     0.0000     1.2010 ha         1 3C8       0.124000
     39 H17          1.7170     0.0000     5.6310 h5         1 3C8      -0.002900
     40 H18         -2.6770     0.8680     3.5510 hn         1 3C8       0.281800
     41 H19         -2.6780    -0.8650     3.5550 hn         1 3C8       0.281800
     42 C1          -4.8670    -2.4550    -3.1070 c3         1 3C8       0.110200
@<TRIPOS>BOND
     1     1    12 1   
     2     1    13 ar  
     3     1    17 ar  
     4     2     6 1   
     5     2    12 1   
     6     2    23 1   
     7     2    24 1   
     8     3     4 1   
     9     3     9 1   
    10     3    11 2   
    11     4     5 1   
    12     4     7 1   
    13     4    25 1   
    14     5     6 1   
    15     5    26 1   
    16     5    27 1   
    17     6    28 1   
    18     6    29 1   
    19     7    12 1   
    20     7    30 1   
    21     7    31 1   
    22     8     9 2   
    23     8    10 1   
    24     8    32 1   
    25     9    42 1   
    26    10    11 1   
    27    10    36 1   
    28    13    14 ar  
    29    13    37 1   
    30    14    15 ar  
    31    14    38 1   
    32    15    16 ar  
    33    15    21 ar  
    34    16    17 ar  
    35    16    18 ar  
    36    18    19 ar  
    37    18    22 1   
    38    19    20 ar  
    39    20    21 ar  
    40    20    39 1   
    41    22    40 1   
    42    22    41 1   
    43    33    42 1   
    44    34    42 1   
    45    35    42 1   
@<TRIPOS>SUBSTRUCTURE
     1 3C8         1 TEMP              0 ****  ****    0 ROOT
