@<TRIPOS>MOLECULE
molecule
   42    45     1     0     0
SMALL
bcc


@<TRIPOS>ATOM
      1 C14          0.0000     0.0000     0.0000 ca         1 3C8       0.620200
      2 C11         -0.2630     1.1420    -2.0420 c3         1 3C8       0.168800
      3 C7          -4.3350    -0.1150    -2.1310 cc         1 3C8       0.348600
      4 C8          -2.8450    -0.1360    -2.3460 c3         1 3C8      -0.088000
      5 C9          -2.4430     1.0280    -3.2550 c3         1 3C8      -0.078400
      6 C10         -0.9200     1.0350    -3.4190 c3         1 3C8      -0.082400
      7 C13         -2.1320     0.0050    -0.9990 c3         1 3C8       0.178800
      8 C3          -6.4710    -0.7410    -2.1090 cd         1 3C8      -0.115300
      9 C2          -5.2270    -1.1390    -2.4640 cc         1 3C8      -0.298600
     10 N4          -6.3700     0.4910    -1.5690 na         1 3C8      -0.045600
     11 N6          -5.0190     0.8630    -1.5940 nd         1 3C8      -0.511800
     12 N12         -0.6780     0.0050    -1.2110 nh         1 3C8      -0.701300
     13 C15          1.4020     0.0000     0.0000 ca         1 3C8      -0.239300
     14 C16          2.0830     0.0000     1.1820 ca         1 3C8      -0.123300
     15 C17          1.3390     0.0010     2.3770 ca         1 3C8       0.303300
     16 C18         -0.0730     0.0010     2.3070 ca         1 3C8       0.194000
     17 N19         -0.6870     0.0000     1.1250 nb         1 3C8      -0.709000
     18 C20         -0.7970     0.0010     3.5260 ca         1 3C8       0.685900
     19 N21         -0.1150     0.0000     4.6620 nb         1 3C8      -0.759000
     20 C22          1.2080     0.0000     4.6750 ca         1 3C8       0.678900
     21 N23          1.9300     0.0010     3.5800 nb         1 3C8      -0.723000
     22 N24         -2.1780     0.0010     3.5290 nv         1 3C8      -1.067500
     23 H1          -0.5700     2.0660    -1.5670 h1         1 3C8       0.044700
     24 H2           0.8140     1.1300    -2.1560 h1         1 3C8       0.044700
     25 H3          -2.5550    -1.0710    -2.8100 hc         1 3C8       0.073700
     26 H4          -2.7620     1.9620    -2.8070 hc         1 3C8       0.053700
     27 H6          -2.9100     0.9070    -4.2250 hc         1 3C8       0.053700
     28 H7          -0.6270     1.8840    -4.0250 hc         1 3C8       0.051700
     29 H8          -0.6050     0.1170    -3.8990 hc         1 3C8       0.051700
     30 H9          -2.4270     0.9360    -0.5320 h1         1 3C8       0.066700
     31 H10         -2.4020    -0.8270    -0.3600 h1         1 3C8       0.066700
     32 H11         -7.3840    -1.3110    -2.2350 h4         1 3C8       0.169000
     33 H12         -5.7640    -3.0460    -3.2460 hc         1 3C8       0.038700
     34 H13         -4.1760    -2.9910    -2.4670 hc         1 3C8       0.038700
     35 H14         -4.4020    -2.2720    -4.0680 hc         1 3C8       0.038700
     36 H5          -7.1260     1.0430    -1.2140 hn         1 3C8       0.328700
     37 H15          1.9440    -0.0600    -0.9360 ha         1 3C8       0.149000
     38 H16          3.1670     0.0000     1.2010 ha         1 3C8       0.159000
     39 H17          1.7170     0.0000     5.6310 h5         1 3C8       0.058100
     40 H18         -2.6770     0.8680     3.5510 hn         1 3C8       0.444800
     41 H19         -2.6780    -0.8650     3.5550 hn         1 3C8       0.444800
     42 C1          -4.8670    -2.4550    -3.1070 c3         1 3C8      -0.009800
@<TRIPOS>BOND
     1     6     2 1   
     2     6     5 1   
     3     2    12 1   
     4    13    14 ar  
     5    13     1 ar  
     6    14    15 ar  
     7    12     1 1   
     8    12     7 1   
     9     5     4 1   
    10     1    17 ar  
    11    15    21 ar  
    12    15    16 ar  
    13     4     7 1   
    14     4     3 1   
    15    21    20 ar  
    16    17    16 ar  
    17    16    18 ar  
    18     3    11 2   
    19     3     9 1   
    20    11    10 1   
    21    20    19 ar  
    22    18    19 ar  
    23    18    22 1   
    24     9    42 1   
    25     9     8 2   
    26    10     8 1   
    27     2    23 1   
    28     2    24 1   
    29     4    25 1   
    30     5    26 1   
    31     5    27 1   
    32     6    28 1   
    33     6    29 1   
    34     7    30 1   
    35     7    31 1   
    36     8    32 1   
    37    42    33 1   
    38    42    34 1   
    39    42    35 1   
    40    10    36 1   
    41    13    37 1   
    42    14    38 1   
    43    20    39 1   
    44    22    40 1   
    45    22    41 1   
@<TRIPOS>SUBSTRUCTURE
     1 3C8         1 TEMP              0 ****  ****    0 ROOT
