@<TRIPOS>MOLECULE
molecule
   50    52     1     0     0
SMALL
bcc


@<TRIPOS>ATOM
      1 S1           0.0000     0.0000     0.0000 s6         1 3C9       1.329900
      2 N2           1.6560     0.0000     0.0000 n3         1 3C9      -0.815500
      3 C3           4.8150     2.2290     2.9220 c          1 3C9       0.771100
      4 N4           5.5910     2.1730     4.0220 ns         1 3C9      -0.561400
      5 N5           6.0720     4.4710     3.8450 nb         1 3C9      -0.609000
      6 C6           7.6170     5.4650     5.3490 ca         1 3C9       0.311500
      7 C7           6.2710     3.3130     4.4550 ca         1 3C9       0.422900
      8 C8           6.7220     5.5540     4.2630 ca         1 3C9       0.343800
      9 N9           7.8040     4.2970     5.9490 nb         1 3C9      -0.651000
     10 C10          2.4050     0.0000     1.2640 c3         1 3C9       0.225800
     11 N11          8.1340     6.7240     5.5520 na         1 3C9      -0.278100
     12 C12          6.7450     6.9540     3.8360 cc         1 3C9      -0.298800
     13 O14         -0.3510    -0.6060    -1.2370 o          1 3C9      -0.629800
     14 O15         -0.3510    -0.6040     1.2380 o          1 3C9      -0.629800
     15 C16          7.6050     7.5970     4.6430 cd         1 3C9      -0.083100
     16 O17          4.6310     3.2920     2.3610 o          1 3C9      -0.589100
     17 C18          3.3960     1.1680     1.2490 c3         1 3C9       0.117700
     18 C19          7.1560     3.2290     5.5300 ca         1 3C9       0.287900
     19 C20         -0.4530     1.7570    -0.0000 c3         1 3C9      -0.221600
     20 C21          2.4040    -0.0060    -1.2650 c3         1 3C9       0.232800
     21 C22          3.3960     1.1610    -1.2570 c3         1 3C9      -0.098400
     22 C23          4.2740     1.0710    -0.0010 c3         1 3C9      -0.094400
     23 C24         -1.9770     1.8900    -0.0000 c3         1 3C9      -0.056700
     24 C25         -2.3590     3.3670     0.1260 c3         1 3C9      -0.093100
     25 C26         -2.5390     1.3280    -1.3070 c3         1 3C9      -0.093100
     26 H1           5.6460     1.3270     4.5530 hn         1 3C9       0.323500
     27 H2           2.9460    -0.9330     1.3650 h1         1 3C9       0.062200
     28 H3           1.7170     0.1190     2.0930 h1         1 3C9       0.062200
     29 H4           8.7990     6.9640     6.2600 hn         1 3C9       0.305700
     30 H5           6.1770     7.3880     3.0220 ha         1 3C9       0.171000
     31 H6           4.3960     0.2320     2.9040 hn         1 3C9       0.305500
     32 H7           7.8440     8.6520     4.5830 h4         1 3C9       0.174000
     33 H8           2.8500     2.1030     1.2340 h1         1 3C9       0.083700
     34 H9           7.3100     2.2780     6.0250 h4         1 3C9       0.026100
     35 H10         -0.0480     2.2340    -0.8850 h1         1 3C9       0.098700
     36 H11         -0.0480     2.2340     0.8840 h1         1 3C9       0.098700
     37 H12          1.7160     0.1090    -2.0930 h1         1 3C9       0.061200
     38 H13          2.9440    -0.9400    -1.3610 h1         1 3C9       0.061200
     39 H14          2.8510     2.0970    -1.2490 hc         1 3C9       0.051700
     40 H15          4.0220     1.1080    -2.1390 hc         1 3C9       0.051700
     41 H16          4.8000     0.1240     0.0020 hc         1 3C9       0.056200
     42 H17          4.9880     1.8860    -0.0030 hc         1 3C9       0.056200
     43 H18         -2.3880     1.3380     0.8370 hc         1 3C9       0.060700
     44 H19         -3.4380     3.4580     0.1720 hc         1 3C9       0.042700
     45 H20         -1.9880     3.9110    -0.7350 hc         1 3C9       0.042700
     46 H21         -1.9230     3.7770     1.0280 hc         1 3C9       0.042700
     47 H22         -2.5880     0.2480    -1.2440 hc         1 3C9       0.042700
     48 H23         -3.5330     1.7260    -1.4740 hc         1 3C9       0.042700
     49 H24         -1.8940     1.6130    -2.1300 hc         1 3C9       0.042700
     50 N13          4.2410     1.1070     2.4450 ns         1 3C9      -0.603900
@<TRIPOS>BOND
     1    21    20 1
     2    21    22 1
     3    20     2 1
     4    22    17 1
     5    25    23 1
     6    19    23 1
     7    19     1 1
     8     2     1 1
     9     2    10 1
    10    13     1 2
    11    23    24 1
    12    17    10 1
    13    17    50 1
    14     1    14 2
    15    50     3 1
    16    16     3 2
    17     3     4 1
    18    12    15 2
    19    12     8 1
    20     5     8 ar
    21     5     7 ar
    22    15    11 1
    23     8     6 ar
    24     4     7 1
    25     7    18 ar
    26    11     6 1
    27     6     9 ar
    28    18     9 ar
    29     4    26 1
    30    10    27 1
    31    10    28 1
    32    11    29 1
    33    12    30 1
    34    50    31 1
    35    15    32 1
    36    17    33 1
    37    18    34 1
    38    19    35 1
    39    19    36 1
    40    20    37 1
    41    20    38 1
    42    21    39 1
    43    21    40 1
    44    22    41 1
    45    22    42 1
    46    23    43 1
    47    24    44 1
    48    24    45 1
    49    24    46 1
    50    25    47 1
    51    25    48 1
    52    25    49 1
@<TRIPOS>SUBSTRUCTURE
     1 3C9         1 TEMP              0 ****  ****    0 ROOT
