@<TRIPOS>MOLECULE
3CA
   25    26     1     0     0
SMALL
bcc


@<TRIPOS>ATOM
      1 O1          0.0620    0.3360   -0.0150 o         1 3CA     -0.829300
      2 C9          1.2620   -0.0660   -0.1350 c         1 3CA      0.918200
      3 O91         1.9270   -0.5490    0.8200 o         1 3CA     -0.829300
      4 C8          1.9230    0.0400   -1.4960 ca        1 3CA     -0.222600
      5 C10         1.2510    0.5300   -2.6340 ca        1 3CA      0.197100
      6 O10        -0.0410    0.9680   -2.6370 oh        1 3CA     -0.548100
      7 C11         1.9100    0.5920   -3.8810 ca        1 3CA     -0.216000
      8 C12         3.2250    0.1670   -3.9870 ca        1 3CA     -0.089000
      9 C13         3.9140   -0.3110   -2.8620 cp        1 3CA     -0.154000
     10 C7          3.2500   -0.3680   -1.6290 ca        1 3CA     -0.030000
     11 C3          5.2900   -0.7740   -3.0100 cp        1 3CA      0.032000
     12 C2          5.5740   -1.7360   -3.9960 ca        1 3CA     -0.122000
     13 C4          6.3550   -0.2980   -2.2240 ca        1 3CA      0.024400
     14 CL          6.1170    0.8920   -1.0360 cl        1 3CA     -0.071400
     15 C5          7.6560   -0.7810   -2.4070 ca        1 3CA     -0.127000
     16 C6          7.9020   -1.7390   -3.3890 ca        1 3CA      0.006400
     17 CL1         9.4870   -2.3270   -3.6150 cl        1 3CA     -0.123400
     18 C1          6.8630   -2.2200   -4.1910 ca        1 3CA     -0.131000
     19 H10        -0.4100    0.8890   -1.7280 ho        1 3CA      0.486000
     20 H11         1.3680    0.9770   -4.7540 ha        1 3CA      0.127000
     21 H12         3.7370    0.2120   -4.9600 ha        1 3CA      0.109000
     22 H7          3.7610   -0.7490   -0.7270 ha        1 3CA      0.163000
     23 H2          4.7480   -2.1130   -4.6180 ha        1 3CA      0.145000
     24 H5          8.4780   -0.4030   -1.7790 ha        1 3CA      0.150000
     25 H1          7.0590   -2.9770   -4.9640 ha        1 3CA      0.137000
@<TRIPOS>BOND
     1    1    2 1   
     2    2    3 1   
     3    2    4 1   
     4    4    5 ar  
     5    4   10 ar  
     6    5    6 1   
     7    5    7 ar  
     8    6   19 1   
     9    7    8 ar  
    10    7   20 1   
    11    8    9 ar  
    12    8   21 1   
    13    9   10 ar  
    14    9   11 1   
    15   10   22 1   
    16   11   12 ar  
    17   11   13 ar  
    18   12   18 ar  
    19   12   23 1   
    20   13   14 1   
    21   13   15 ar  
    22   15   16 ar  
    23   15   24 1   
    24   16   17 1   
    25   16   18 ar  
    26   18   25 1   
@<TRIPOS>SUBSTRUCTURE
     1 3CA         1 TEMP              0 ****  ****    0 ROOT
