@<TRIPOS>MOLECULE
molecule
   25    26     1     0     0
SMALL
bcc


@<TRIPOS>ATOM
      1 O1           0.0000     0.0000     0.0000 o          1 3CA      -0.819800
      2 C9           1.3650     0.0000     0.0000 c          1 3CA       0.888200
      3 O91          1.9890     0.0000     1.0420 o          1 3CA      -0.819800
      4 C8           1.9870     0.0030    -1.3800 ca         1 3CA      -0.118600
      5 C10          1.2300     0.4260    -2.5150 ca         1 3CA       0.176100
      6 O10         -0.0970     0.8500    -2.3490 oh         1 3CA      -0.462100
      7 C11          1.7960     0.4330    -3.7860 ca         1 3CA      -0.229000
      8 C12          3.0920     0.0310    -3.9770 ca         1 3CA      -0.092000
      9 C13          3.9290    -0.4220    -2.8590 cp         1 3CA      -0.151000
     10 C7           3.3030    -0.4010    -1.5710 ca         1 3CA      -0.055000
     11 C3           5.2530    -0.8250    -3.0240 cp         1 3CA       0.059000
     12 C2           5.6210    -1.6430    -4.1700 ca         1 3CA      -0.139000
     13 C4           6.3240    -0.4650    -2.0790 ca         1 3CA       0.019400
     14 Cl           5.9940     0.4920    -0.6290 cl         1 3CA      -0.083400
     15 C5           7.6080    -0.9050    -2.3230 ca         1 3CA      -0.109000
     16 C6           7.9390    -1.6880    -3.4400 ca         1 3CA       0.003400
     17 Cl1          9.5990    -2.2170    -3.6960 cl         1 3CA      -0.140400
     18 C1           6.9200    -2.0490    -4.3570 ca         1 3CA      -0.115000
     19 H10         -0.6440     0.4300    -2.9920 ho         1 3CA       0.392000
     20 H11          1.2050     0.7600    -4.6340 ha         1 3CA       0.116000
     21 H12          3.5070     0.0430    -4.9770 ha         1 3CA       0.107000
     22 H7           3.8760    -0.7250    -0.7110 ha         1 3CA       0.155000
     23 H2           4.8610    -1.9330    -4.8850 ha         1 3CA       0.143000
     24 H5           8.3920    -0.6380    -1.6250 ha         1 3CA       0.143000
     25 H1           7.1690    -2.6560    -5.2190 ha         1 3CA       0.131000
@<TRIPOS>BOND
     1     1     2 1   
     2     2     3 1   
     3     2     4 1   
     4     4     5 ar  
     5     4    10 ar  
     6     5     6 1   
     7     5     7 ar  
     8     6    19 1   
     9     7     8 ar  
    10     7    20 1   
    11     8     9 ar  
    12     8    21 1   
    13     9    10 ar  
    14     9    11 1   
    15    10    22 1   
    16    11    12 ar  
    17    11    13 ar  
    18    12    18 ar  
    19    12    23 1   
    20    13    14 1   
    21    13    15 ar  
    22    15    16 ar  
    23    15    24 1   
    24    16    17 1   
    25    16    18 ar  
    26    18    25 1   
@<TRIPOS>SUBSTRUCTURE
     1 3CA         1 TEMP              0 ****  ****    0 ROOT
