@<TRIPOS>MOLECULE
3CB
   77    71     1     0     0
SMALL
bcc


@<TRIPOS>ATOM
      1 C15        -0.3570    1.3490    0.2320 c2        1 3CB      0.271000
      2 O1          0.1230    2.1360    1.1020 o         1 3CB     -0.486000
      3 N17        -1.0730    1.7960   -0.8200 n         1 3CB     -0.432000
      4 C18         0.7450    1.1580    4.5510 c2        1 3CB     -0.184000
      5 C19         1.1310    2.5220    4.0560 c3        1 3CB     -0.101000
      6 C20        -0.0370    3.4880    4.1170 c3        1 3CB     -0.174000
      7 C28         1.0100    0.8650    5.8260 c1        1 3CB      0.199000
      8 O30         1.4350    0.5720    6.9040 o         1 3CB     -0.191000
      9 N31        -0.0710    0.3030    3.7710 n3        1 3CB     -0.296000
     10 C32        -3.9460   -2.3790    5.1600 c1        1 3CB     -0.226500
     11 C16         0.1950   -2.8690    5.2480 c2        1 3CB     -0.150000
     12 C17         0.7900   -3.1970    6.3510 c1        1 3CB     -0.151000
     13 C22         1.4100   -3.5080    7.4660 c2        1 3CB     -0.025000
     14 C23         1.9910   -2.4980    8.3270 c2        1 3CB     -0.432000
     15 C24         2.6550   -2.6240    9.4570 c1        1 3CB      0.199000
     16 C25        -3.1390   -1.5730    4.7980 c1        1 3CB     -0.226500
     17 N1          0.5580   -5.8200    7.7680 n2        1 3CB     -0.306000
     18 C2          0.3870    4.8320    3.5250 c2        1 3CB      0.088000
     19 N5          0.0110    5.0260    2.1870 n3        1 3CB     -0.344000
     20 N3          1.0060    5.7610    4.2000 n2        1 3CB     -0.342000
     21 C1         -4.4010    1.2320   -4.4240 c3        1 3CB     -0.172000
     22 C4         -3.0590    1.6220   -3.8350 c3        1 3CB     -0.231000
     23 N4          0.8450   -0.8150    0.0500 n3        1 3CB     -0.639000
     24 C5         -0.1530   -0.1020    0.5060 c1        1 3CB     -0.071000
     25 O4          2.2890   -2.8250    0.2280 o         1 3CB     -0.929500
     26 O3          1.0910   -2.1870    2.1750 o         1 3CB     -0.929500
     27 C9         -0.2290   -3.2810    0.3060 c3        1 3CB     -0.797000
     28 C6         -2.5010    0.7070   -2.8720 c1        1 3CB     -0.091000
     29 C8         -0.5060   -3.2020   -1.1420 c2        1 3CB     -0.240000
     30 C7          1.3170   -2.7290   -4.1340 c1        1 3CB     -0.247000
     31 C12         0.1230   -2.6190   -4.0710 c1        1 3CB     -0.088000
     32 C10        -1.2740   -2.4940   -4.0600 c2        1 3CB      0.002000
     33 C11        -2.0850   -2.7350   -3.0070 c2        1 3CB     -0.187000
     34 C13        -1.7360   -2.9900   -1.6360 c2        1 3CB     -0.044000
     35 N2          2.7490   -5.2840    8.4930 n3        1 3CB     -0.335000
     36 C14        -1.9060   -1.9370   -5.3510 c2        1 3CB      0.372000
     37 O2         -2.1540   -2.7150   -6.3000 o         1 3CB     -0.550500
     38 O5         -2.1500   -0.6940   -5.3260 o         1 3CB     -0.550500
     39 H17        -1.5260    1.2060   -1.5610 hn        1 3CB      0.258500
     40 H18        -1.2660    2.7690   -0.8520 hn        1 3CB      0.258500
     41 H191       -0.3680    3.6330    5.1780 hc        1 3CB      0.105500
     42 H192        1.9870    2.9200    4.6620 hc        1 3CB      0.103500
     43 H201       -0.9070    3.0570    3.5540 hc        1 3CB      0.105500
     44 H202        1.4760    2.4290    2.9890 hc        1 3CB      0.103500
     45 H31         0.4060   -0.5590    3.5680 hn        1 3CB      0.185000
     46 H321       -4.6590   -3.0930    5.4800 ha        1 3CB      0.227000
     47 H322       -0.3300    0.7600    2.9130 hn        1 3CB      0.185000
     48 H16        -0.8840   -2.6410    5.2050 ha        1 3CB      0.164500
     49 H2          0.7310   -2.7820    4.2850 ha        1 3CB      0.164500
     50 H23         1.8460   -1.4440    7.9790 ha        1 3CB      0.215000
     51 H24        -2.4240   -0.8530    4.4740 ha        1 3CB      0.227000
     52 HN1        -0.2940   -5.4430    7.4120 hn        1 3CB      0.153000
     53 HN51        0.4700    5.7680    1.7090 hn        1 3CB      0.207000
     54 HN52       -0.0530    4.1790    1.6600 hn        1 3CB      0.207000
     55 HN3         1.1330    5.5330    5.1620 hn        1 3CB      0.133000
     56 H1         -5.0410    3.2640   -4.8490 hc        1 3CB      0.066000
     57 H41        -3.0880    2.6720   -3.4390 hc        1 3CB      0.142000
     58 H42        -2.2840    1.5880   -4.6740 hc        1 3CB      0.142000
     59 HN4         1.4860   -0.4960   -0.6530 hn        1 3CB      0.219000
     60 H5         -4.2740    0.2550   -4.9700 hc        1 3CB      0.099000
     61 H91        -0.0050   -4.3560    0.5660 h1        1 3CB      0.167500
     62 H92        -1.1540   -3.0190    0.8920 h1        1 3CB      0.167500
     63 H61        -2.7790   -0.3540   -2.9680 ha        1 3CB      0.096000
     64 H62        -0.2820    0.5440   -3.5450 ha        1 3CB      0.007000
     65 H63        -0.4950    0.0080   -3.9090 ha        1 3CB      0.007000
     66 H7          2.3680   -2.8280   -4.2010 ha        1 3CB      0.214000
     67 H10        -3.1740   -2.6540   -3.1900 ha        1 3CB      0.133000
     68 H11        -2.5940   -2.9380   -0.9360 ha        1 3CB      0.110000
     69 H13         0.3680   -3.3420   -1.8000 ha        1 3CB      0.153000
     70 HN21        3.5270   -4.8380    8.0590 hn        1 3CB      0.192000
     71 HN22        2.8920   -6.2580    8.6520 hn        1 3CB      0.192000
     72 C26         1.5170   -4.9490    7.8850 c2        1 3CB      0.115000
     73 C3         -4.9150    2.2840   -5.3700 c3        1 3CB     -0.204000
     74 H31A       -4.2030    2.4250   -6.2200 hc        1 3CB      0.066000
     75 H32        -5.9040    1.9780   -5.7880 hc        1 3CB      0.066000
     76 H33        -5.1420    1.0750   -3.5980 hc        1 3CB      0.099000
     77 S1          1.0930   -2.3190    0.7710 s6        1 3CB      2.784000
@<TRIPOS>BOND
     1    1    2 1
     2    1    3 1
     3    1   24 1
     4    3   39 1
     5    3   40 1
     6    4    5 1
     7    4    7 1
     8    4    9 1
     9    5    6 1
    10    5   42 1
    11    5   44 1
    12    6   18 1
    13    6   41 1
    14    6   43 1
    15    7    8 1
    16    9   45 1
    17    9   47 1
    18   10   16 1
    19   10   46 1
    20   11   12 1
    21   11   48 1
    22   11   49 1
    23   12   13 1
    24   13   14 1
    25   13   72 1
    26   14   15 1
    27   14   50 1
    28   16   51 1
    29   17   52 1
    30   17   72 1
    31   18   19 1
    32   18   20 1
    33   19   53 1
    34   19   54 1
    35   20   55 1
    36   21   22 1
    37   21   60 1
    38   21   73 1
    39   21   76 1
    40   22   28 1
    41   22   57 1
    42   22   58 1
    43   23   24 1
    44   23   59 1
    45   23   77 1
    46   25   77 1
    47   26   77 1
    48   27   29 1
    49   27   61 1
    50   27   62 1
    51   27   77 1
    52   28   63 1
    53   29   34 1
    54   29   69 1
    55   30   31 1
    56   30   66 1
    57   31   32 1
    58   32   33 1
    59   32   36 1
    60   33   34 1
    61   33   67 1
    62   34   68 1
    63   35   70 1
    64   35   71 1
    65   35   72 1
    66   36   37 1
    67   36   38 1
    68   56   73 1
    69   64   65 1
    70   73   74 1
    71   73   75 1
@<TRIPOS>SUBSTRUCTURE
     1 3CB         1 TEMP              0 ****  ****    0 ROOT
