@<TRIPOS>MOLECULE
molecule
   50    51     1     0     0
SMALL
bcc


@<TRIPOS>ATOM
      1 C1           0.0000     0.0000     0.0000 ca         1 3CC      -0.018000
      2 C2           1.3810     0.0000     0.0000 ca         1 3CC      -0.344500
      3 C3           2.0710     0.0000     1.1970 ca         1 3CC      -0.031000
      4 C4           1.3780     0.0010     2.3930 ca         1 3CC      -0.119000
      5 C5          -0.6970     0.0060     1.1970 ca         1 3CC      -0.101300
      6 C6          -0.0070     0.0000     2.3950 ca         1 3CC       0.015700
      7 C7          -0.9850     0.0080     3.5500 c3         1 3CC      -0.072100
      8 C8          -2.3360    -0.4210     2.9370 c3         1 3CC       0.123700
      9 C9          -2.1870     0.0070     1.4650 c3         1 3CC      -0.051100
     10 S1           2.2630    -0.0020    -1.5250 sy         1 3CC       1.226200
     11 O1           3.5450    -0.5460    -1.2480 o          1 3CC      -0.519300
     12 O2           1.3810    -0.5470    -2.4980 o          1 3CC      -0.519300
     13 N1           2.5080     1.5800    -1.9520 nz         1 3CC      -0.805500
     14 N2          -3.4470     0.2850     3.5810 ns         1 3CC      -0.591900
     15 C10         -3.9970    -0.2110     4.7070 c          1 3CC       0.666100
     16 O3          -3.6340    -1.2840     5.1380 o          1 3CC      -0.593100
     17 C11         -5.0630     0.5710     5.4320 c3         1 3CC      -0.140700
     18 C12         -6.4430     0.0890     4.9820 c3         1 3CC      -0.071400
     19 C13         -7.5230     0.9640     5.6210 c3         1 3CC      -0.086900
     20 C14         -8.9040     0.4820     5.1700 c3         1 3CC      -0.091100
     21 C15         -4.9160     0.3580     6.9390 c3         1 3CC      -0.071400
     22 C16         -3.5920     0.9640     7.4130 c3         1 3CC      -0.086900
     23 C17         -3.5010     0.8640     8.9360 c3         1 3CC      -0.091100
     24 H1          -0.5400    -0.0070    -0.9390 ha         1 3CC       0.154000
     25 H3           3.1540    -0.0530     1.1990 ha         1 3CC       0.159000
     26 H4           1.9200     0.0030     3.3310 ha         1 3CC       0.167000
     27 H71         -0.6750    -0.7010     4.3080 hc         1 3CC       0.089200
     28 H72         -1.0630     1.0050     3.9670 hc         1 3CC       0.089200
     29 H8          -2.4620    -1.4950     3.0100 h1         1 3CC       0.104700
     30 H91         -2.5770     1.0090     1.3380 hc         1 3CC       0.073700
     31 H92         -2.6710    -0.7200     0.8250 hc         1 3CC       0.073700
     32 HN11         3.0370     2.0400    -1.2370 hn         1 3CC       0.491133
     33 HN12         1.6250     2.0370    -2.0600 hn         1 3CC       0.491133
     34 HN2         -3.8220     1.1140     3.1640 hn         1 3CC       0.318500
     35 H11         -4.9570     1.6250     5.2030 hc         1 3CC       0.053700
     36 H121        -6.5150     0.1570     3.9030 hc         1 3CC       0.057700
     37 H122        -6.5840    -0.9400     5.2890 hc         1 3CC       0.057700
     38 H131        -7.4510     0.8960     6.7000 hc         1 3CC       0.040200
     39 H132        -7.3820     1.9940     5.3140 hc         1 3CC       0.040200
     40 H141        -8.9740     0.5460     4.0910 hc         1 3CC       0.037367
     41 H142        -9.0460    -0.5460     5.4810 hc         1 3CC       0.037367
     42 H143        -9.6680     1.1050     5.6200 hc         1 3CC       0.037367
     43 H151        -4.9260    -0.7030     7.1570 hc         1 3CC       0.057700
     44 H152        -5.7380     0.8410     7.4540 hc         1 3CC       0.057700
     45 H161        -3.5440     2.0050     7.1160 hc         1 3CC       0.040200
     46 H162        -2.7670     0.4230     6.9660 hc         1 3CC       0.040200
     47 H171        -2.5440     1.2470     9.2670 hc         1 3CC       0.037367
     48 H172        -3.5980    -0.1730     9.2360 hc         1 3CC       0.037367
     49 H173        -4.2980     1.4450     9.3840 hc         1 3CC       0.037367
     50 H13          3.0140     1.6180    -2.8140 hn         1 3CC       0.491133
@<TRIPOS>BOND
     1    23    22 1
     2    22    21 1
     3    21    17 1
     4    16    15 2
     5    17    15 1
     6    17    18 1
     7    15    14 1
     8    14     8 1
     9    18    19 1
    10     8     7 1
    11     8     9 1
    12     7     6 1
    13     9     5 1
    14    19    20 1
    15     6     5 ar
    16     6     4 ar
    17     5     1 ar
    18     4     3 ar
    19     1     2 ar
    20     3     2 ar
    21     2    10 1
    22    13    10 1
    23    12    10 2
    24    10    11 2
    25     1    24 1
    26     3    25 1
    27     4    26 1
    28     7    27 1
    29     7    28 1
    30     8    29 1
    31     9    30 1
    32     9    31 1
    33    13    32 1
    34    13    33 1
    35    14    34 1
    36    17    35 1
    37    18    36 1
    38    18    37 1
    39    19    38 1
    40    19    39 1
    41    20    40 1
    42    20    41 1
    43    20    42 1
    44    21    43 1
    45    21    44 1
    46    22    45 1
    47    22    46 1
    48    23    47 1
    49    23    48 1
    50    23    49 1
    51    50    13 1
@<TRIPOS>SUBSTRUCTURE
     1 3CC         1 TEMP              0 ****  ****    0 ROOT
