@<TRIPOS>MOLECULE
3CC
   50    51     1     0     0
SMALL
bcc


@<TRIPOS>ATOM
      1 C1           0.0000     0.0000     0.0000 ca         1 3CC       0.027000
      2 C2           1.3810     0.0000     0.0000 ca         1 3CC      -0.230500
      3 C3           2.0710     0.0000     1.1970 ca         1 3CC       0.007000
      4 C4           1.3780     0.0010     2.3930 ca         1 3CC      -0.089000
      5 C5          -0.6970     0.0060     1.1970 ca         1 3CC      -0.114300
      6 C6          -0.0070     0.0000     2.3950 ca         1 3CC       0.016700
      7 C7          -0.9850     0.0080     3.5500 c3         1 3CC      -0.001100
      8 C8          -2.3360    -0.4210     2.9370 c3         1 3CC       0.024700
      9 C9          -2.1870     0.0070     1.4650 c3         1 3CC       0.028900
     10 S1           2.2630    -0.0020    -1.5250 sy         1 3CC       0.935200
     11 O1           3.5450    -0.5460    -1.2480 o          1 3CC      -0.496300
     12 O2           1.3810    -0.5470    -2.4980 o          1 3CC      -0.496300
     13 N1           2.5080     1.5800    -1.9520 nz         1 3CC      -0.131500
     14 N2          -3.4470     0.2850     3.5810 ns         1 3CC      -0.209900
     15 C10         -3.9970    -0.2110     4.7070 c          1 3CC       0.585100
     16 O3          -3.6340    -1.2840     5.1380 o          1 3CC      -0.627100
     17 C11         -5.0630     0.5710     5.4320 c3         1 3CC      -0.117700
     18 C12         -6.4430     0.0890     4.9820 c3         1 3CC      -0.022400
     19 C13         -7.5230     0.9640     5.6210 c3         1 3CC      -0.034900
     20 C14         -8.9040     0.4820     5.1700 c3         1 3CC       0.008400
     21 C15         -4.9160     0.3580     6.9390 c3         1 3CC      -0.022400
     22 C16         -3.5920     0.9640     7.4130 c3         1 3CC      -0.034900
     23 C17         -3.5010     0.8640     8.9360 c3         1 3CC       0.008400
     24 H1          -0.5400    -0.0070    -0.9390 ha         1 3CC       0.124000
     25 H3           3.1540    -0.0530     1.1990 ha         1 3CC       0.129000
     26 H4           1.9200     0.0030     3.3310 ha         1 3CC       0.133000
     27 H71         -0.6750    -0.7010     4.3080 hc         1 3CC       0.051700
     28 H72         -1.0630     1.0050     3.9670 hc         1 3CC       0.051700
     29 H8          -2.4620    -1.4950     3.0100 h1         1 3CC       0.075700
     30 H91         -2.5770     1.0090     1.3380 hc         1 3CC       0.037700
     31 H92         -2.6710    -0.7200     0.8250 hc         1 3CC       0.037700
     32 HN11         3.0370     2.0400    -1.2370 hn         1 3CC       0.312800
     33 HN12         1.6250     2.0370    -2.0600 hn         1 3CC       0.312800
     34 HN2         -3.8220     1.1140     3.1640 hn         1 3CC       0.180500
     35 H11         -4.9570     1.6250     5.2030 hc         1 3CC       0.029700
     36 H121        -6.5150     0.1570     3.9030 hc         1 3CC       0.030200
     37 H122        -6.5840    -0.9400     5.2890 hc         1 3CC       0.030200
     38 H131        -7.4510     0.8960     6.7000 hc         1 3CC       0.013200
     39 H132        -7.3820     1.9940     5.3140 hc         1 3CC       0.013200
     40 H141        -8.9740     0.5460     4.0910 hc         1 3CC       0.004033
     41 H142        -9.0460    -0.5460     5.4810 hc         1 3CC       0.004033
     42 H143        -9.6680     1.1050     5.6200 hc         1 3CC       0.004033
     43 H151        -4.9260    -0.7030     7.1570 hc         1 3CC       0.030200
     44 H152        -5.7380     0.8410     7.4540 hc         1 3CC       0.030200
     45 H161        -3.5440     2.0050     7.1160 hc         1 3CC       0.013200
     46 H162        -2.7670     0.4230     6.9660 hc         1 3CC       0.013200
     47 H171        -2.5440     1.2470     9.2670 hc         1 3CC       0.004033
     48 H172        -3.5980    -0.1730     9.2360 hc         1 3CC       0.004033
     49 H173        -4.2980     1.4450     9.3840 hc         1 3CC       0.004033
     50 H13          3.0140     1.6180    -2.8140 hn         1 3CC       0.312800
@<TRIPOS>BOND
     1     1     2 ar  
     2     1     5 ar  
     3     1    24 1   
     4     2     3 ar  
     5     2    10 1   
     6     3     4 ar  
     7     3    25 1   
     8     4     6 ar  
     9     4    26 1   
    10     5     6 ar  
    11     5     9 1   
    12     6     7 1   
    13     7     8 1   
    14     7    27 1   
    15     7    28 1   
    16     8     9 1   
    17     8    14 1   
    18     8    29 1   
    19     9    30 1   
    20     9    31 1   
    21    10    11 2   
    22    10    12 2   
    23    10    13 1   
    24    13    32 1   
    25    13    33 1   
    26    13    50 1   
    27    14    15 1   
    28    14    34 1   
    29    15    16 2   
    30    15    17 1   
    31    17    18 1   
    32    17    21 1   
    33    17    35 1   
    34    18    19 1   
    35    18    36 1   
    36    18    37 1   
    37    19    20 1   
    38    19    38 1   
    39    19    39 1   
    40    20    40 1   
    41    20    41 1   
    42    20    42 1   
    43    21    22 1   
    44    21    43 1   
    45    21    44 1   
    46    22    23 1   
    47    22    45 1   
    48    22    46 1   
    49    23    47 1   
    50    23    48 1   
    51    23    49 1   
@<TRIPOS>SUBSTRUCTURE
     1 3CC         1 TEMP              0 ****  ****    0 ROOT
