@<TRIPOS>MOLECULE
3CE
   14    14     1     0     0
SMALL
bcc


@<TRIPOS>ATOM
      1 C1         -0.1360   -0.0810    0.0570 ca        1 3CE      0.119100
      2 O1         -0.9280   -0.1800   -1.0610 oh        1 3CE     -0.491100
      3 Cl1         3.7220    0.1660    1.1100 cl        1 3CE     -0.091400
      4 C2          1.2750   -0.0150   -0.0150 ca        1 3CE      0.049100
      5 O2          1.8060   -0.0560   -1.2860 oh        1 3CE     -0.512100
      6 C3          2.0220    0.0850    1.1660 ca        1 3CE     -0.026600
      7 C4          1.3720    0.1180    2.4040 ca        1 3CE     -0.125000
      8 C5         -0.0170    0.0520    2.4630 ca        1 3CE     -0.120000
      9 C6         -0.7790   -0.0470    1.3000 ca        1 3CE     -0.132000
     10 HO1        -0.3510   -0.1930   -1.8410 ho        1 3CE      0.440000
     11 HO2         2.7720   -0.0040   -1.2120 ho        1 3CE      0.440000
     12 H4          1.9620    0.1970    3.3300 ha        1 3CE      0.150000
     13 H5         -0.5220    0.0790    3.4410 ha        1 3CE      0.143000
     14 H6         -1.8770   -0.1000    1.3390 ha        1 3CE      0.157000
@<TRIPOS>BOND
     1    1    2 1   
     2    1    4 ar  
     3    1    9 ar  
     4    2   10 1   
     5    3    6 1   
     6    4    5 1   
     7    4    6 ar  
     8    5   11 1   
     9    6    7 ar  
    10    7    8 ar  
    11    7   12 1   
    12    8    9 ar  
    13    8   13 1   
    14    9   14 1   
@<TRIPOS>SUBSTRUCTURE
     1 3CE         1 TEMP              0 ****  ****    0 ROOT
