@<TRIPOS>MOLECULE
molecule
   14    14     1     0     0
SMALL
bcc


@<TRIPOS>ATOM
      1 C1           0.0000     0.0000     0.0000 ca         1 3CE       0.098100
      2 O1          -0.6810     0.0060    -1.1780 oh         1 3CE      -0.509100
      3 Cl1          3.8160    -0.0010     1.2100 cl         1 3CE      -0.090400
      4 C2           1.3910     0.0000     0.0000 ca         1 3CE       0.095100
      5 O2           2.0730     0.0010    -1.1770 oh         1 3CE      -0.502100
      6 C3           2.0810     0.0000     1.2040 ca         1 3CE       0.005400
      7 C4           1.3840    -0.0010     2.3990 ca         1 3CE      -0.120000
      8 C5           0.0020    -0.0010     2.3980 ca         1 3CE      -0.115000
      9 C6          -0.6910     0.0000     1.2010 ca         1 3CE      -0.151000
     10 HO1         -1.0230    -0.8560    -1.3480 ho         1 3CE       0.426000
     11 HO2          2.3570     0.8780    -1.3750 ho         1 3CE       0.428000
     12 H4           1.9240    -0.0020     3.3390 ha         1 3CE       0.148000
     13 H5          -0.5390    -0.0010     3.3360 ha         1 3CE       0.141000
     14 H6          -1.7740     0.0000     1.2030 ha         1 3CE       0.146000
@<TRIPOS>BOND
     1     2     1 1
     2     1     4 ar
     3     1     9 ar
     4     2    10 1
     5     6     3 1
     6     5     4 1
     7     4     6 ar
     8     5    11 1
     9     6     7 ar
    10     8     7 ar
    11     7    12 1
    12     9     8 ar
    13     8    13 1
    14     9    14 1
@<TRIPOS>SUBSTRUCTURE
     1 3CE         1 TEMP              0 ****  ****    0 ROOT
