@<TRIPOS>MOLECULE
3CH
   13    13     1     0     0
SMALL
bcc


@<TRIPOS>ATOM
      1 C4         -0.0100   -0.0330   -0.0210 ca        1 3CH     -0.160000
      2 C5          1.3850   -0.0850   -0.0510 ca        1 3CH     -0.089000
      3 C3         -0.6660    0.0990    1.2060 ca        1 3CH      0.055400
      4 C6          2.1280   -0.0080    1.1220 ca        1 3CH     -0.156000
      5 C2          0.0530    0.1800    2.4010 ca        1 3CH     -0.212000
      6 C1          1.4520    0.1250    2.3470 ca        1 3CH      0.134100
      7 OH          2.2370    0.1970    3.4740 oh        1 3CH     -0.494100
      8 CL         -2.3650    0.1640    1.2520 cl        1 3CH     -0.092400
      9 HC4        -0.5860   -0.0950   -0.9560 ha        1 3CH      0.149000
     10 HC5         1.9020   -0.1890   -1.0170 ha        1 3CH      0.140000
     11 HC6         3.2260   -0.0480    1.1100 ha        1 3CH      0.154000
     12 HC2        -0.4660    0.2830    3.3650 ha        1 3CH      0.148000
     13 HO          1.6530    0.2860    4.2420 ho        1 3CH      0.422000
@<TRIPOS>BOND
     1    1    2 ar  
     2    1    3 ar  
     3    1    9 1   
     4    2    4 ar  
     5    2   10 1   
     6    3    5 ar  
     7    3    8 1   
     8    4    6 ar  
     9    4   11 1   
    10    5    6 ar  
    11    5   12 1   
    12    6    7 1   
    13    7   13 1   
@<TRIPOS>SUBSTRUCTURE
     1 3CH         1 TEMP              0 ****  ****    0 ROOT
