@<TRIPOS>MOLECULE
molecule
   13    13     1     0     0
SMALL
bcc


@<TRIPOS>ATOM
      1 C4           0.0000     0.0000     0.0000 ca         1 3CH      -0.131000
      2 C5           1.3830     0.0000     0.0000 ca         1 3CH      -0.107000
      3 C3          -0.6940     0.0000     1.1970 ca         1 3CH       0.041400
      4 C6           2.0740     0.0000     1.1960 ca         1 3CH      -0.151000
      5 C2          -0.0060    -0.0060     2.3960 ca         1 3CH      -0.150000
      6 C1           1.3810    -0.0010     2.3980 ca         1 3CH       0.114100
      7 OH           2.0600    -0.0010     3.5760 oh         1 3CH      -0.518100
      8 Cl          -2.4300    -0.0000     1.1920 cl         1 3CH      -0.105400
      9 HC4         -0.5410     0.0020    -0.9390 ha         1 3CH       0.146000
     10 HC5          1.9250     0.0000    -0.9380 ha         1 3CH       0.140000
     11 HC6          3.1580     0.0020     1.1960 ha         1 3CH       0.144000
     12 HC2         -0.5490    -0.0060     3.3330 ha         1 3CH       0.154000
     13 HO           2.1780     0.8870     3.8700 ho         1 3CH       0.422000
@<TRIPOS>BOND
     1     1     2 ar  
     2     1     3 ar  
     3     1     9 1   
     4     2     4 ar  
     5     2    10 1   
     6     3     5 ar  
     7     3     8 1   
     8     4     6 ar  
     9     4    11 1   
    10     5     6 ar  
    11     5    12 1   
    12     6     7 1   
    13     7    13 1   
@<TRIPOS>SUBSTRUCTURE
     1 3CH         1 TEMP              0 ****  ****    0 ROOT
