@<TRIPOS>MOLECULE
molecule
   21    21     1     0     0
SMALL
bcc


@<TRIPOS>ATOM
      1 C7           0.0000     0.0000     0.0000 c3         1 3CJ      -0.092100
      2 C6           1.5290     0.0000     0.0000 c3         1 3CJ      -0.083400
      3 C5           2.0390     0.0000     1.4420 c3         1 3CJ      -0.052200
      4 C2           3.5470     0.0000     1.4430 cc         1 3CJ       0.056400
      5 C3           4.2240     1.1630     1.5460 cd         1 3CJ      -0.303200
      6 N1           4.2340    -1.1790     1.3470 ns         1 3CJ      -0.376100
      7 C1           5.5780    -1.1890     1.3460 cs         1 3CJ       0.577400
      8 S1           6.4100    -2.6820     1.2240 s          1 3CJ      -0.620400
      9 N2           6.2800    -0.0450     1.4420 ns         1 3CJ      -0.490500
     10 C4           5.6400     1.1370     1.5440 c          1 3CJ       0.686700
     11 O1           6.2740     2.1730     1.6310 o          1 3CJ      -0.602500
     12 H1          -0.3610     0.8970     0.4890 hc         1 3CJ       0.040367
     13 H2          -0.3610    -0.0250    -1.0210 hc         1 3CJ       0.040367
     14 H3          -0.3610    -0.8720     0.5320 hc         1 3CJ       0.040367
     15 H4           1.8910     0.8850    -0.5110 hc         1 3CJ       0.051200
     16 H5           1.8910    -0.8850    -0.5110 hc         1 3CJ       0.051200
     17 H6           1.6780    -0.8850     1.9530 hc         1 3CJ       0.068700
     18 H7           1.6780     0.8840     1.9530 hc         1 3CJ       0.068700
     19 H8           3.6920     2.1040     1.6260 ha         1 3CJ       0.183000
     20 H10          7.2800    -0.0720     1.4400 hn         1 3CJ       0.381500
     21 H9           3.7310    -2.0420     1.2760 hn         1 3CJ       0.375500
@<TRIPOS>BOND
     1     8     7 2   
     2     7     6 1   
     3     7     9 1   
     4     6     4 1   
     5     9    10 1   
     6     4     3 1   
     7     4     5 2   
     8     3     2 1   
     9    10     5 1   
    10    10    11 2   
    11     1     2 1   
    12     1    12 1   
    13     1    13 1   
    14     1    14 1   
    15     2    15 1   
    16     2    16 1   
    17     3    17 1   
    18     3    18 1   
    19     5    19 1   
    20     9    20 1   
    21     6    21 1   
@<TRIPOS>SUBSTRUCTURE
     1 3CJ         1 TEMP              0 ****  ****    0 ROOT
