@<TRIPOS>MOLECULE
3CK
   45    46     1     0     0
SMALL
bcc


@<TRIPOS>ATOM
      1 C1         -0.4440    0.3510    0.4890 c3        1 3CK      0.324900
      2 C2          0.9980    0.3560   -0.0590 c3        1 3CK      0.081100
      3 C3          2.0040    0.1770    1.0860 c3        1 3CK      0.112100
      4 C4          1.7380    1.2400    2.1670 c3        1 3CK      0.124100
      5 C5          0.2790    1.1470    2.6350 c3        1 3CK      0.100100
      6 C6         -0.0660    2.3010    3.5820 c3        1 3CK      0.143400
      7 O1         -0.7170   -0.9080    1.0910 os        1 3CK     -0.473600
      8 O2          1.2220   -0.7050   -0.9680 oh        1 3CK     -0.606800
      9 O3          3.3320    0.3790    0.6370 oh        1 3CK     -0.608800
     10 O4          2.5550    1.0080    3.3000 oh        1 3CK     -0.594800
     11 O5         -0.6190    1.2840    1.5270 os        1 3CK     -0.415600
     12 O6         -1.3750    2.1750    4.0880 oh        1 3CK     -0.605800
     13 C1'        -1.5880   -2.1660   -0.8320 c3        1 3CK      0.115400
     14 C2'        -1.8220   -1.6400    0.5940 c3        1 3CK      0.271600
     15 C3'        -2.1220   -2.7700    1.6170 c3        1 3CK      0.107100
     16 C4'        -3.5170   -2.4080    2.1910 c3        1 3CK      0.126100
     17 C5'        -3.7810   -0.9620    1.7080 c3        1 3CK      0.074100
     18 C6'        -3.4950    0.0880    2.7810 c3        1 3CK      0.101400
     19 O1'        -1.6530   -1.1330   -1.7910 oh        1 3CK     -0.609800
     20 O2'        -2.9270   -0.7480    0.5700 os        1 3CK     -0.433600
     21 O3'        -1.2190   -2.8470    2.6980 oh        1 3CK     -0.593800
     22 O4'        -3.6170   -2.5650    3.5800 oh        1 3CK     -0.574800
     23 O6'        -3.9410    1.3720    2.4010 oh        1 3CK     -0.586800
     24 H1         -1.1990    0.6300   -0.2980 h2        1 3CK      0.109700
     25 H2          1.1730    1.3420   -0.5740 h1        1 3CK      0.065700
     26 H3          1.8990   -0.8560    1.5210 h1        1 3CK      0.068700
     27 H4          1.9540    2.2620    1.7470 h1        1 3CK      0.058700
     28 H5          0.0970    0.1580    3.1370 h1        1 3CK      0.077700
     29 H6          0.0620    3.2820    3.0520 h1        1 3CK      0.060200
     30 H7          0.6120    2.2490    4.4760 h1        1 3CK      0.060200
     31 H8          0.5280   -0.6520   -1.6410 ho        1 3CK      0.429000
     32 H9          3.4720   -0.2370   -0.0950 ho        1 3CK      0.426000
     33 H10         3.4650    0.9640    2.9760 ho        1 3CK      0.424000
     34 H11        -1.9850    2.2640    3.3400 ho        1 3CK      0.427000
     35 H12        -2.3440   -2.9620   -1.0620 h1        1 3CK      0.070700
     36 H13        -0.5430   -2.5730   -0.9110 h1        1 3CK      0.070700
     37 H14        -2.1400   -3.7670    1.1010 h1        1 3CK      0.068700
     38 H15        -4.2990   -3.0990    1.7690 h1        1 3CK      0.085700
     39 H16        -4.8230   -0.8450    1.3070 h1        1 3CK      0.076700
     40 H17        -2.3810    0.2030    2.9140 h1        1 3CK      0.075200
     41 H18        -3.9770   -0.2240    3.7460 h1        1 3CK      0.075200
     42 H19        -2.5360   -0.7400   -1.7360 ho        1 3CK      0.425000
     43 H20        -0.3610   -2.5020    2.4160 ho        1 3CK      0.439000
     44 H21        -2.8050   -2.2230    3.9860 ho        1 3CK      0.431000
     45 H22        -4.9010    1.3320    2.3150 ho        1 3CK      0.396000
@<TRIPOS>BOND
     1    1    2 1   
     2    1    7 1   
     3    1   11 1   
     4    1   24 1   
     5    2    3 1   
     6    2    8 1   
     7    2   25 1   
     8    3    4 1   
     9    3    9 1   
    10    3   26 1   
    11    4    5 1   
    12    4   10 1   
    13    4   27 1   
    14    5    6 1   
    15    5   11 1   
    16    5   28 1   
    17    6   12 1   
    18    6   29 1   
    19    6   30 1   
    20    7   14 1   
    21    8   31 1   
    22    9   32 1   
    23   10   33 1   
    24   12   34 1   
    25   13   14 1   
    26   13   19 1   
    27   13   35 1   
    28   13   36 1   
    29   14   15 1   
    30   14   20 1   
    31   15   16 1   
    32   15   21 1   
    33   15   37 1   
    34   16   17 1   
    35   16   22 1   
    36   16   38 1   
    37   17   18 1   
    38   17   20 1   
    39   17   39 1   
    40   18   23 1   
    41   18   40 1   
    42   18   41 1   
    43   19   42 1   
    44   21   43 1   
    45   22   44 1   
    46   23   45 1   
@<TRIPOS>SUBSTRUCTURE
     1 3CK         1 TEMP              0 ****  ****    0 ROOT
