@<TRIPOS>MOLECULE
molecule
   45    46     1     0     0
SMALL
bcc


@<TRIPOS>ATOM
      1 C1           0.0000     0.0000     0.0000 c3         1 3CK       0.319900
      2 C2           1.5310     0.0000     0.0000 c3         1 3CK       0.096100
      3 C3           2.0340     0.0000     1.4470 c3         1 3CK       0.112100
      4 C4           1.4540     1.2140     2.1770 c3         1 3CK       0.086100
      5 C5          -0.0750     1.1680     2.0940 c3         1 3CK       0.140100
      6 C6          -0.6610     2.4090     2.7700 c3         1 3CK       0.147400
      7 O1          -0.4760    -1.1930     0.6260 os         1 3CK      -0.389600
      8 O2           2.0080    -1.1680    -0.6720 oh         1 3CK      -0.573800
      9 O3           3.4610     0.0740     1.4560 oh         1 3CK      -0.590800
     10 O4           1.8580     1.1860     3.5480 oh         1 3CK      -0.587800
     11 O5          -0.4740     1.1380     0.7230 os         1 3CK      -0.396600
     12 O6          -2.0870     2.3310     2.7530 oh         1 3CK      -0.569800
     13 C1'         -2.2940    -1.3460    -0.9690 c3         1 3CK       0.110400
     14 C2'         -1.8870    -1.3890     0.5050 c3         1 3CK       0.341600
     15 C3'         -2.2800    -2.7500     1.1190 c3         1 3CK       0.114100
     16 C4'         -2.7780    -2.3440     2.5330 c3         1 3CK       0.090100
     17 C5'         -3.4230    -0.9670     2.2340 c3         1 3CK       0.116100
     18 C6'         -3.4400    -0.1030     3.4960 c3         1 3CK       0.157400
     19 O1'         -2.1150    -0.0220    -1.4730 oh         1 3CK      -0.585800
     20 O2'         -2.5820    -0.3680     1.2320 os         1 3CK      -0.358600
     21 O3'         -1.1470    -3.6150     1.2070 oh         1 3CK      -0.547800
     22 O4'         -1.6850    -2.2140     3.4440 oh         1 3CK      -0.558800
     23 O6'         -4.1650     1.1010     3.2400 oh         1 3CK      -0.578800
     24 H1          -0.3600     0.0470    -1.0210 h2         1 3CK       0.114700
     25 H2           1.8910     0.8870    -0.5060 h1         1 3CK       0.039700
     26 H3           1.7100    -0.9080     1.9410 h1         1 3CK       0.132700
     27 H4           1.8120     2.1230     1.7080 h1         1 3CK       0.027700
     28 H5          -0.4340     0.2760     2.5920 h1         1 3CK       0.092700
     29 H6          -0.3140     2.4590     3.7950 h1         1 3CK       0.025200
     30 H7          -0.3410     3.2960     2.2370 h1         1 3CK       0.025200
     31 H8           2.6000    -0.9140    -1.3600 ho         1 3CK       0.396000
     32 H9           3.7400     0.8260     0.9590 ho         1 3CK       0.385000
     33 H10          2.5660     1.7950     3.6790 ho         1 3CK       0.402000
     34 H11         -2.4500     3.1930     2.8720 ho         1 3CK       0.394000
     35 H12         -1.6770    -2.0340    -1.5340 h1         1 3CK       0.033700
     36 H13         -3.3350    -1.6320    -1.0640 h1         1 3CK       0.033700
     37 H14         -3.0800    -3.2090     0.5500 h1         1 3CK       0.046700
     38 H15         -3.5170    -3.0460     2.8980 h1         1 3CK       0.039700
     39 H16         -4.4260    -1.1010     1.8490 h1         1 3CK       0.049700
     40 H17         -2.4230     0.1410     3.7800 h1         1 3CK       0.048700
     41 H18         -3.9180    -0.6490     4.3000 h1         1 3CK       0.048700
     42 H19         -2.6090     0.0800    -2.2700 ho         1 3CK       0.397000
     43 H20         -1.4120    -4.5000     1.0170 ho         1 3CK       0.393000
     44 H21         -1.7430    -2.8860     4.1030 ho         1 3CK       0.401000
     45 H22         -4.8920     1.1630     3.8370 ho         1 3CK       0.381000
@<TRIPOS>BOND
     1    19    13 1   
     2    15    21 1   
     3    15    16 1   
     4    15    14 1   
     5    22    16 1   
     6    16    17 1   
     7    13    14 1   
     8     1    11 1   
     9     1     2 1   
    10     1     7 1   
    11    14     7 1   
    12    14    20 1   
    13     8     2 1   
    14    11     5 1   
    15     2     3 1   
    16    17    20 1   
    17    17    18 1   
    18    18    23 1   
    19     5     6 1   
    20     5     4 1   
    21     3     4 1   
    22     3     9 1   
    23    12     6 1   
    24     4    10 1   
    25     1    24 1   
    26     2    25 1   
    27     3    26 1   
    28     4    27 1   
    29     5    28 1   
    30     6    29 1   
    31     6    30 1   
    32     8    31 1   
    33     9    32 1   
    34    10    33 1   
    35    12    34 1   
    36    13    35 1   
    37    13    36 1   
    38    15    37 1   
    39    16    38 1   
    40    17    39 1   
    41    18    40 1   
    42    18    41 1   
    43    19    42 1   
    44    21    43 1   
    45    22    44 1   
    46    23    45 1   
@<TRIPOS>SUBSTRUCTURE
     1 3CK         1 TEMP              0 ****  ****    0 ROOT
