@<TRIPOS>MOLECULE
3CL
   12    11     1     0     0
SMALL
bcc


@<TRIPOS>ATOM
      1 O1          0.0190   -0.0010    0.0530 oh        1 3CL     -0.596800
      2 C2          1.4360    0.0000   -0.0060 c3        1 3CL      0.131400
      3 C3          1.9360   -0.0000    1.4310 c3        1 3CL     -0.097400
      4 C4          3.4440   -0.0000    1.4470 c3        1 3CL      0.036000
      5 CL5         4.0690    0.0000    3.0870 cl        1 3CL     -0.190400
      6 HO1        -0.2940   -0.0000   -0.8580 ho        1 3CL      0.402000
      7 H21         1.7990   -0.9120   -0.5510 h1        1 3CL      0.021700
      8 H22         1.7970    0.9150   -0.5500 h1        1 3CL      0.021700
      9 H31         1.5340    0.9020    1.9620 hc        1 3CL      0.071700
     10 H32         1.5340   -0.9030    1.9620 hc        1 3CL      0.071700
     11 H41         3.8540    0.9120    0.9510 h1        1 3CL      0.063700
     12 H42         3.8540   -0.9130    0.9510 h1        1 3CL      0.063700
@<TRIPOS>BOND
     1    1    2 1   
     2    1    6 1   
     3    2    3 1   
     4    2    7 1   
     5    2    8 1   
     6    3    4 1   
     7    3    9 1   
     8    3   10 1   
     9    4    5 1   
    10    4   11 1   
    11    4   12 1   
@<TRIPOS>SUBSTRUCTURE
     1 3CL         1 TEMP              0 ****  ****    0 ROOT
