@<TRIPOS>MOLECULE
molecule
   12    11     1     0     0
SMALL
bcc


@<TRIPOS>ATOM
      1 O1           0.0000     0.0000     0.0000 oh         1 3CL      -0.606800
      2 C2           1.4280     0.0000     0.0000 c3         1 3CL       0.141400
      3 C3           1.9390     0.0000     1.4420 c3         1 3CL      -0.093400
      4 C4           3.4680    -0.0000     1.4410 c3         1 3CL       0.051000
      5 Cl5          4.0700     0.0000     3.1400 cl         1 3CL      -0.199400
      6 HO1         -0.3140    -0.0000    -0.8890 ho         1 3CL       0.405000
      7 H21          1.7890     0.8840    -0.5110 h1         1 3CL       0.019700
      8 H22          1.7890    -0.8840    -0.5110 h1         1 3CL       0.019700
      9 H31          1.5780     0.8840     1.9530 hc         1 3CL       0.068700
     10 H32          1.5780    -0.8840     1.9530 hc         1 3CL       0.068700
     11 H41          3.8290     0.8840     0.9310 h1         1 3CL       0.062700
     12 H42          3.8290    -0.8840     0.9310 h1         1 3CL       0.062700
@<TRIPOS>BOND
     1     1     2 1
     2     1     6 1
     3     2     3 1
     4     2     7 1
     5     2     8 1
     6     3     4 1
     7     3     9 1
     8     3    10 1
     9     4     5 1
    10     4    11 1
    11     4    12 1
@<TRIPOS>SUBSTRUCTURE
     1 3CL         1 TEMP              0 ****  ****    0 ROOT
