@<TRIPOS>MOLECULE
molecule
   14    13     1     0     0
SMALL
bcc


@<TRIPOS>ATOM
      1 CA           0.0000     0.0000     0.0000 c3         1 3CN      -0.087100
      2 CB           1.5300     0.0000     0.0000 c3         1 3CN      -0.112400
      3 CC           2.0410     0.0000     1.4420 c3         1 3CN       0.089800
      4 ND           3.5100     0.0010     1.4430 nz         1 3CN      -0.810600
      5 HA1         -0.3610    -0.0000    -1.0210 hc         1 3CN       0.063367
      6 HA2         -0.3610     0.8850     0.5110 hc         1 3CN       0.063367
      7 HA3         -0.3610    -0.8840     0.5110 hc         1 3CN       0.063367
      8 HB1          1.8910     0.8840    -0.5110 hc         1 3CN       0.065700
      9 HB2          1.8910    -0.8840    -0.5110 hc         1 3CN       0.065700
     10 HC1          1.6790     0.8840     1.9530 hx         1 3CN       0.113700
     11 HC2          1.6800    -0.8850     1.9530 hx         1 3CN       0.113700
     12 HND1         3.8440    -0.8160     0.9710 hn         1 3CN       0.457467
     13 HND2         3.8430     0.0000     2.3860 hn         1 3CN       0.457467
     14 HD3          3.8430     0.8180     0.9710 hn         1 3CN       0.457467
@<TRIPOS>BOND
     1     1     2 1
     2     1     5 1
     3     1     6 1
     4     1     7 1
     5     2     3 1
     6     2     8 1
     7     2     9 1
     8     3     4 1
     9     3    10 1
    10     3    11 1
    11     4    12 1
    12     4    13 1
    13    14     4 1
@<TRIPOS>SUBSTRUCTURE
     1 3CN         1 TEMP              0 ****  ****    0 ROOT
