@<TRIPOS>MOLECULE
molecule
   78    83     1     0     0
SMALL
bcc


@<TRIPOS>ATOM
      1 N42          0.0000     0.0000     0.0000 nc         1 3CQ      -0.639000
      2 C43          1.3360     0.0000     0.0000 cc         1 3CQ       0.372800
      3 C44          2.1260     0.0020    -1.2400 c          1 3CQ       0.795100
      4 O45          3.3400     0.0030    -1.1870 o          1 3CQ      -0.816300
      5 O46          1.5030     0.0010    -2.4360 o          1 3CQ      -0.816300
      6 C2          12.1380     4.9050     2.6570 c1         1 3CQ      -0.119100
      7 C3          -4.5410    -2.8830    -8.6800 ca         1 3CQ      -0.116000
      8 C4          -3.1630    -2.8550    -8.5200 ca         1 3CQ      -0.182000
      9 C5          -6.9120     0.2990     0.6380 ca         1 3CQ      -0.152000
     10 C6           8.7080     5.3230     2.0270 ca         1 3CQ      -0.160000
     11 C7          -6.4020    -0.1170    -0.5740 ca         1 3CQ      -0.088000
     12 C8          -6.0570     0.6240     1.6720 ca         1 3CQ      -0.131000
     13 C9          -5.3700    -2.5130    -7.6520 ca         1 3CQ      -0.074000
     14 C10          7.3780     5.0110     1.8280 ca         1 3CQ       0.155900
     15 C11         -2.6160    -2.4590    -7.3210 ca         1 3CQ      -0.087000
     16 C12          7.8710     2.6760     2.1510 ca         1 3CQ      -0.179000
     17 C13          9.6290     4.3060     2.2860 ca         1 3CQ      -0.059000
     18 C14         -5.0210    -0.2120    -0.7460 ca         1 3CQ      -0.169600
     19 C15         -4.6810     0.5360     1.5090 ca         1 3CQ      -0.105300
     20 C16         -4.1590     0.1150     0.3080 ca         1 3CQ      -0.033300
     21 C17         -4.8330    -2.0980    -6.4150 ca         1 3CQ       0.133400
     22 C18          6.9570     3.6870     1.8890 ca         1 3CQ       0.232100
     23 C19         -3.4430    -2.0860    -6.2640 ca         1 3CQ      -0.117100
     24 C22         -4.7790    -1.3880    -4.2710 cc         1 3CQ       0.452800
     25 C23         -4.4680    -0.6560    -2.0420 c          1 3CQ       0.657700
     26 C24         -3.7940     0.8910     2.6750 c3         1 3CQ      -0.065100
     27 C25         -2.6740     0.0130     0.0760 c3         1 3CQ       0.219100
     28 C26         -2.3660     1.1360     2.1890 c3         1 3CQ       0.149800
     29 C20          1.9080     0.0000     1.2250 cd         1 3CQ      -0.130700
     30 C21         -0.5850     0.0000     1.1550 cd         1 3CQ       0.614300
     31 C27         15.4770     6.5630     4.3710 c3         1 3CQ       0.165600
     32 C28         13.3970     7.6650     3.6790 c3         1 3CQ       0.165600
     33 C29         13.7200     5.3010     2.7870 c3         1 3CQ       0.312900
     34 C30          3.3890     0.0020     1.5080 c3         1 3CQ       0.035900
     35 C31          3.8880     1.4450     1.6050 c3         1 3CQ      -0.046400
     36 C32          5.3900     1.4460     1.8930 c3         1 3CQ       0.240400
     37 C33          9.2010     2.9800     2.3460 ca         1 3CQ      -0.114000
     38 N34         -5.4840    -1.7110    -5.3000 nd         1 3CQ      -0.667100
     39 N36         -5.2970    -0.9710    -3.0570 ns         1 3CQ      -0.447400
     40 N35         -1.9550    -0.0000     1.3540 nh         1 3CQ      -0.610300
     41 N37         14.0300     6.3090     3.8920 n3         1 3CQ      -0.859600
     42 O38         -3.2650    -0.7390    -2.1930 o          1 3CQ      -0.535100
     43 O39          5.8570     2.7940     1.9840 os         1 3CQ      -0.511900
     44 S40         -3.0650    -1.5300    -4.6350 ss         1 3CQ       0.063900
     45 S41          0.6260    -0.0010     2.4330 ss         1 3CQ      -0.370300
     46 H2          -4.4960    -3.2230    -9.7080 ha         1 3CQ       0.147000
     47 H3          -2.2960    -2.9500    -9.1630 ha         1 3CQ       0.138000
     48 H4          -7.8260     0.1500     1.2000 ha         1 3CQ       0.139000
     49 H5           9.5490     5.8900     1.6480 ha         1 3CQ       0.195000
     50 H6          -6.8510    -0.8000    -1.2850 ha         1 3CQ       0.123000
     51 H7          -6.4520     1.2130     2.4920 ha         1 3CQ       0.127000
     52 H8          -6.4470    -2.4650    -7.5490 ha         1 3CQ       0.146000
     53 H9          -1.5410    -2.3990    -7.1950 ha         1 3CQ       0.139000
     54 H10          7.4490     1.7390     2.4930 ha         1 3CQ       0.159000
     55 H11         -4.1210     0.1900     3.4330 hc         1 3CQ       0.051200
     56 H12         -4.2400     1.8710     2.7960 hc         1 3CQ       0.051200
     57 H13         -2.9380    -0.9910    -0.2310 h1         1 3CQ       0.110700
     58 H14         -2.3690     0.7830    -0.6220 h1         1 3CQ       0.110700
     59 H15         -2.6320     2.1840     2.1270 h1         1 3CQ       0.060200
     60 H16         -1.9390     1.0680     3.1830 h1         1 3CQ       0.060200
     61 H17         15.4760     6.9990     5.3630 h1         1 3CQ       0.041033
     62 H18         15.7270     5.5170     4.4940 h1         1 3CQ       0.041033
     63 H19         15.8320     7.0860     3.4910 h1         1 3CQ       0.041033
     64 H20         13.7700     7.8220     2.6740 h1         1 3CQ       0.041033
     65 H21         12.3150     7.6760     3.6130 h1         1 3CQ       0.041033
     66 H22         14.1390     8.3570     4.0570 h1         1 3CQ       0.041033
     67 H23         14.3920     4.5470     3.1800 h1         1 3CQ       0.044700
     68 H24         14.1830     5.6810     1.8840 h1         1 3CQ       0.044700
     69 H25          3.6140    -0.8440     0.8690 hc         1 3CQ       0.064200
     70 H26          3.3000    -0.5860     2.4140 hc         1 3CQ       0.064200
     71 H27          3.8290     2.0640     2.4920 hc         1 3CQ       0.071200
     72 H28          3.6670     2.1090     0.7780 hc         1 3CQ       0.071200
     73 H29          5.9010     0.6730     1.3310 h1         1 3CQ       0.018200
     74 H30          5.3990     0.9680     2.8650 h1         1 3CQ       0.018200
     75 H31         10.1290     2.4840     2.6050 ha         1 3CQ       0.142000
     76 H32         -6.2800    -1.0630    -2.8900 hn         1 3CQ       0.338500
     77 C1          11.0110     4.6250     2.4870 cg         1 3CQ      -0.111000
     78 F47          6.4850     5.9920     1.5730 f          1 3CQ      -0.134900
@<TRIPOS>BOND
     1     4     3 1
     2     5     3 1
     3     3     2 1
     4     1     2 1
     5     1    30 2
     6    26    28 1
     7    26    19 1
     8     2    29 2
     9    35    36 1
    10    35    34 1
    11    28    40 1
    12    36    43 1
    13    30    40 1
    14    30    45 1
    15    40    27 1
    16    29    34 1
    17    29    45 1
    18    19    12 ar
    19    19    20 ar
    20    12     9 ar
    21    16    37 ar
    22    16    22 ar
    23    27    20 1
    24    20    18 ar
    25     9    11 ar
    26    37    17 ar
    27    43    22 1
    28    22    14 ar
    29    18    11 ar
    30    18    25 1
    31    31    41 1
    32    17    77 1
    33    17    10 ar
    34    32    41 1
    35    14    10 ar
    36    14    78 1
    37    77     6 3
    38    25    42 2
    39    25    39 1
    40    41    33 1
    41     6    33 1
    42    39    24 1
    43    24    38 2
    44    24    44 1
    45    38    21 1
    46    44    23 1
    47    21    23 ar
    48    21    13 ar
    49    23    15 ar
    50    13     7 ar
    51    15     8 ar
    52     7     8 ar
    53     7    46 1
    54     8    47 1
    55     9    48 1
    56    10    49 1
    57    11    50 1
    58    12    51 1
    59    13    52 1
    60    15    53 1
    61    16    54 1
    62    26    55 1
    63    26    56 1
    64    27    57 1
    65    27    58 1
    66    28    59 1
    67    28    60 1
    68    31    61 1
    69    31    62 1
    70    31    63 1
    71    32    64 1
    72    32    65 1
    73    32    66 1
    74    33    67 1
    75    33    68 1
    76    34    69 1
    77    34    70 1
    78    35    71 1
    79    35    72 1
    80    36    73 1
    81    36    74 1
    82    37    75 1
    83    39    76 1
@<TRIPOS>SUBSTRUCTURE
     1 3CQ         1 TEMP              0 ****  ****    0 ROOT
