@<TRIPOS>MOLECULE
3CQ
   78    83     1     0     0
SMALL
bcc


@<TRIPOS>ATOM
      1 N42          0.0000     0.0000     0.0000 nc         1 3CQ      -0.498000
      2 C43          1.3360     0.0000     0.0000 cc         1 3CQ       0.328800
      3 C44          2.1260     0.0020    -1.2400 c          1 3CQ       0.878100
      4 O45          3.3400     0.0030    -1.1870 o          1 3CQ      -0.866800
      5 O46          1.5030     0.0010    -2.4360 o          1 3CQ      -0.866800
      6 C2          12.1380     4.9050     2.6570 c1         1 3CQ      -0.139100
      7 C3          -4.5410    -2.8830    -8.6800 ca         1 3CQ      -0.082000
      8 C4          -3.1630    -2.8550    -8.5200 ca         1 3CQ      -0.167000
      9 C5          -6.9120     0.2990     0.6380 ca         1 3CQ      -0.125000
     10 C6           8.7080     5.3230     2.0270 ca         1 3CQ      -0.149000
     11 C7          -6.4020    -0.1170    -0.5740 ca         1 3CQ      -0.068000
     12 C8          -6.0570     0.6240     1.6720 ca         1 3CQ      -0.113000
     13 C9          -5.3700    -2.5130    -7.6520 ca         1 3CQ      -0.044000
     14 C10          7.3780     5.0110     1.8280 ca         1 3CQ       0.147900
     15 C11         -2.6160    -2.4590    -7.3210 ca         1 3CQ      -0.049000
     16 C12          7.8710     2.6760     2.1510 ca         1 3CQ      -0.178000
     17 C13          9.6290     4.3060     2.2860 ca         1 3CQ      -0.044000
     18 C14         -5.0210    -0.2120    -0.7460 ca         1 3CQ      -0.182600
     19 C15         -4.6810     0.5360     1.5090 ca         1 3CQ      -0.111300
     20 C16         -4.1590     0.1150     0.3080 ca         1 3CQ      -0.023300
     21 C17         -4.8330    -2.0980    -6.4150 ca         1 3CQ       0.080400
     22 C18          6.9570     3.6870     1.8890 ca         1 3CQ       0.225100
     23 C19         -3.4430    -2.0860    -6.2640 ca         1 3CQ      -0.056100
     24 C22         -4.7790    -1.3880    -4.2710 cc         1 3CQ       0.313800
     25 C23         -4.4680    -0.6560    -2.0420 c          1 3CQ       0.554700
     26 C24         -3.7940     0.8910     2.6750 c3         1 3CQ      -0.012100
     27 C25         -2.6740     0.0130     0.0760 c3         1 3CQ       0.177100
     28 C26         -2.3660     1.1360     2.1890 c3         1 3CQ       0.120800
     29 C20          1.9080     0.0000     1.2250 cd         1 3CQ      -0.108700
     30 C21         -0.5850     0.0000     1.1550 cd         1 3CQ       0.498300
     31 C27         15.4770     6.5630     4.3710 c3         1 3CQ       0.202600
     32 C28         13.3970     7.6650     3.6790 c3         1 3CQ       0.202600
     33 C29         13.7200     5.3010     2.7870 c3         1 3CQ       0.366900
     34 C30          3.3890     0.0020     1.5080 c3         1 3CQ       0.106900
     35 C31          3.8880     1.4450     1.6050 c3         1 3CQ       0.000600
     36 C32          5.3900     1.4460     1.8930 c3         1 3CQ       0.296400
     37 C33          9.2010     2.9800     2.3460 ca         1 3CQ      -0.087000
     38 N34         -5.4840    -1.7110    -5.3000 nd         1 3CQ      -0.545100
     39 N36         -5.2970    -0.9710    -3.0570 ns         1 3CQ      -0.002400
     40 N35         -1.9550    -0.0000     1.3540 nh         1 3CQ      -0.379300
     41 N37         14.0300     6.3090     3.8920 n3         1 3CQ      -0.683600
     42 O38         -3.2650    -0.7390    -2.1930 o          1 3CQ      -0.549100
     43 O39          5.8570     2.7940     1.9840 os         1 3CQ      -0.449900
     44 S40         -3.0650    -1.5300    -4.6350 ss         1 3CQ      -0.079100
     45 S41          0.6260    -0.0010     2.4330 ss         1 3CQ      -0.441300
     46 H2          -4.4960    -3.2230    -9.7080 ha         1 3CQ       0.119000
     47 H3          -2.2960    -2.9500    -9.1630 ha         1 3CQ       0.116000
     48 H4          -7.8260     0.1500     1.2000 ha         1 3CQ       0.114000
     49 H5           9.5490     5.8900     1.6480 ha         1 3CQ       0.167000
     50 H6          -6.8510    -0.8000    -1.2850 ha         1 3CQ       0.099000
     51 H7          -6.4520     1.2130     2.4920 ha         1 3CQ       0.103000
     52 H8          -6.4470    -2.4650    -7.5490 ha         1 3CQ       0.114000
     53 H9          -1.5410    -2.3990    -7.1950 ha         1 3CQ       0.117000
     54 H10          7.4490     1.7390     2.4930 ha         1 3CQ       0.143000
     55 H11         -4.1210     0.1900     3.4330 hc         1 3CQ       0.025200
     56 H12         -4.2400     1.8710     2.7960 hc         1 3CQ       0.025200
     57 H13         -2.9380    -0.9910    -0.2310 h1         1 3CQ       0.084200
     58 H14         -2.3690     0.7830    -0.6220 h1         1 3CQ       0.084200
     59 H15         -2.6320     2.1840     2.1270 h1         1 3CQ       0.037200
     60 H16         -1.9390     1.0680     3.1830 h1         1 3CQ       0.037200
     61 H17         15.4760     6.9990     5.3630 h1         1 3CQ       0.008200
     62 H18         15.7270     5.5170     4.4940 h1         1 3CQ       0.008200
     63 H19         15.8320     7.0860     3.4910 h1         1 3CQ       0.008200
     64 H20         13.7700     7.8220     2.6740 h1         1 3CQ       0.008200
     65 H21         12.3150     7.6760     3.6130 h1         1 3CQ       0.008200
     66 H22         14.1390     8.3570     4.0570 h1         1 3CQ       0.008200
     67 H23         14.3920     4.5470     3.1800 h1         1 3CQ      -0.001300
     68 H24         14.1830     5.6810     1.8840 h1         1 3CQ      -0.001300
     69 H25          3.6140    -0.8440     0.8690 hc         1 3CQ       0.033700
     70 H26          3.3000    -0.5860     2.4140 hc         1 3CQ       0.033700
     71 H27          3.8290     2.0640     2.4920 hc         1 3CQ       0.037200
     72 H28          3.6670     2.1090     0.7780 hc         1 3CQ       0.037200
     73 H29          5.9010     0.6730     1.3310 h1         1 3CQ      -0.017800
     74 H30          5.3990     0.9680     2.8650 h1         1 3CQ      -0.017800
     75 H31         10.1290     2.4840     2.6050 ha         1 3CQ       0.116000
     76 H32         -6.2800    -1.0630    -2.8900 hn         1 3CQ       0.178500
     77 C1          11.0110     4.6250     2.4870 cg         1 3CQ      -0.105000
     78 F47          6.4850     5.9920     1.5730 f          1 3CQ      -0.128900
@<TRIPOS>BOND
     1     1     2 1   
     2     1    30 2   
     3     2     3 1   
     4     2    29 2   
     5     3     4 1   
     6     3     5 1   
     7     6    33 1   
     8     6    77 3   
     9     7     8 ar  
    10     7    13 ar  
    11     7    46 1   
    12     8    15 ar  
    13     8    47 1   
    14     9    11 ar  
    15     9    12 ar  
    16     9    48 1   
    17    10    14 ar  
    18    10    17 ar  
    19    10    49 1   
    20    11    18 ar  
    21    11    50 1   
    22    12    19 ar  
    23    12    51 1   
    24    13    21 ar  
    25    13    52 1   
    26    14    22 ar  
    27    14    78 1   
    28    15    23 ar  
    29    15    53 1   
    30    16    22 ar  
    31    16    37 ar  
    32    16    54 1   
    33    17    37 ar  
    34    17    77 1   
    35    18    20 ar  
    36    18    25 1   
    37    19    20 ar  
    38    19    26 1   
    39    20    27 1   
    40    21    23 ar  
    41    21    38 1   
    42    22    43 1   
    43    23    44 1   
    44    24    38 2   
    45    24    39 1   
    46    24    44 1   
    47    25    39 1   
    48    25    42 2   
    49    26    28 1   
    50    26    55 1   
    51    26    56 1   
    52    27    40 1   
    53    27    57 1   
    54    27    58 1   
    55    28    40 1   
    56    28    59 1   
    57    28    60 1   
    58    29    34 1   
    59    29    45 1   
    60    30    40 1   
    61    30    45 1   
    62    31    41 1   
    63    31    61 1   
    64    31    62 1   
    65    31    63 1   
    66    32    41 1   
    67    32    64 1   
    68    32    65 1   
    69    32    66 1   
    70    33    41 1   
    71    33    67 1   
    72    33    68 1   
    73    34    35 1   
    74    34    69 1   
    75    34    70 1   
    76    35    36 1   
    77    35    71 1   
    78    35    72 1   
    79    36    43 1   
    80    36    73 1   
    81    36    74 1   
    82    37    75 1   
    83    39    76 1   
@<TRIPOS>SUBSTRUCTURE
     1 3CQ         1 TEMP              0 ****  ****    0 ROOT
