@<TRIPOS>MOLECULE
3CR
   21    21     1     0     0
SMALL
bcc


@<TRIPOS>ATOM
      1 O01          0.0000     0.0000     0.0000 o          1 3CR      -0.871300
      2 C02          1.3470     0.0000     0.0000 c          1 3CR       0.889300
      3 O03          1.9540     0.0000     1.0530 o          1 3CR      -0.871300
      4 C04          2.0840    -0.0010    -1.2770 ce         1 3CR       0.337300
      5 N05          1.4380    -0.0010    -2.3970 n2         1 3CR      -0.392200
      6 O06          2.1470    -0.0020    -3.6230 oh         1 3CR      -0.425500
      7 C07          3.5910    -0.0010    -1.2760 c3         1 3CR      -0.031400
      8 C08          4.0940     1.2870    -0.6760 ca         1 3CR      -0.042300
      9 C09          4.3200     2.3850    -1.4850 ca         1 3CR      -0.048500
     10 C10          4.7810     3.5660    -0.9340 ca         1 3CR      -0.145000
     11 C11          5.0160     3.6500     0.4250 ca         1 3CR      -0.124000
     12 C12          4.7900     2.5520     1.2340 ca         1 3CR      -0.145000
     13 C13          4.3240     1.3710     0.6850 ca         1 3CR      -0.048500
     14 H2           1.5400    -0.1080    -4.3370 ho         1 3CR       0.398000
     15 H3           3.9520    -0.8380    -0.6900 hc         1 3CR       0.022200
     16 H4           3.9530    -0.0910    -2.2930 hc         1 3CR       0.022200
     17 H5           4.1460     2.3160    -2.5520 ha         1 3CR       0.106500
     18 H6           4.9320     4.4340    -1.5650 ha         1 3CR       0.090000
     19 H7           5.3710     4.5770     0.8580 ha         1 3CR       0.083000
     20 H8           4.9710     2.6190     2.3000 ha         1 3CR       0.090000
     21 H9           4.7000     0.7110     1.4570 ha         1 3CR       0.106500
@<TRIPOS>BOND
     1     1     2 1   
     2     2     3 1   
     3     2     4 1   
     4     4     5 2   
     5     4     7 1   
     6     5     6 1   
     7     6    14 1   
     8     7     8 1   
     9     7    15 1   
    10     7    16 1   
    11     8     9 ar  
    12     8    13 ar  
    13     9    10 ar  
    14     9    17 1   
    15    10    11 ar  
    16    10    18 1   
    17    11    12 ar  
    18    11    19 1   
    19    12    13 ar  
    20    12    20 1   
    21    13    21 1   
@<TRIPOS>SUBSTRUCTURE
     1 3CR         1 TEMP              0 ****  ****    0 ROOT
