@<TRIPOS>MOLECULE
molecule
   21    21     1     0     0
SMALL
bcc


@<TRIPOS>ATOM
      1 O01          0.0000     0.0000     0.0000 o          1 3CR      -0.814800
      2 C02          1.3470     0.0000     0.0000 c          1 3CR       0.807300
      3 O03          1.9540     0.0000     1.0530 o          1 3CR      -0.814800
      4 C04          2.0840    -0.0010    -1.2770 ce         1 3CR       0.359300
      5 N05          1.4380    -0.0010    -2.3970 n2         1 3CR      -0.421200
      6 O06          2.1470    -0.0020    -3.6230 oh         1 3CR      -0.446500
      7 C07          3.5910    -0.0010    -1.2760 c3         1 3CR      -0.106400
      8 C08          4.0940     1.2870    -0.6760 ca         1 3CR      -0.045300
      9 C09          4.3200     2.3850    -1.4850 ca         1 3CR      -0.081500
     10 C10          4.7810     3.5660    -0.9340 ca         1 3CR      -0.159000
     11 C11          5.0160     3.6500     0.4250 ca         1 3CR      -0.147000
     12 C12          4.7900     2.5520     1.2340 ca         1 3CR      -0.159000
     13 C13          4.3240     1.3710     0.6850 ca         1 3CR      -0.081500
     14 H2           1.5450    -0.1450    -4.3340 ho         1 3CR       0.406000
     15 H3           3.9520    -0.8380    -0.6900 hc         1 3CR       0.054200
     16 H4           3.9530    -0.0910    -2.2930 hc         1 3CR       0.054200
     17 H5           4.1610     2.3110    -2.5540 ha         1 3CR       0.134000
     18 H6           4.9380     4.4320    -1.5650 ha         1 3CR       0.112000
     19 H7           5.3690     4.5780     0.8580 ha         1 3CR       0.105000
     20 H8           4.9840     2.6150     2.2980 ha         1 3CR       0.112000
     21 H9           4.5330     0.6230     1.4400 ha         1 3CR       0.134000
@<TRIPOS>BOND
     1     3     2 1   
     2     1     2 1   
     3     2     4 1   
     4     4     7 1   
     5     4     5 2   
     6     7     8 1   
     7     5     6 1   
     8     9     8 ar  
     9     9    10 ar  
    10     8    13 ar  
    11    10    11 ar  
    12    13    12 ar  
    13    11    12 ar  
    14     6    14 1   
    15     7    15 1   
    16     7    16 1   
    17     9    17 1   
    18    10    18 1   
    19    11    19 1   
    20    12    20 1   
    21    13    21 1   
@<TRIPOS>SUBSTRUCTURE
     1 3CR         1 TEMP              0 ****  ****    0 ROOT
