@<TRIPOS>MOLECULE
molecule
   79    83     1     0     0
SMALL
bcc


@<TRIPOS>ATOM
      1 C1           0.0000     0.0000     0.0000 ca         1 3CS      -0.157300
      2 C2           1.4040     0.0000     0.0000 ca         1 3CS      -0.108000
      3 C3           2.0760     0.0000     1.1840 ca         1 3CS      -0.133000
      4 C7          -0.7330    -0.0060    -1.2020 ca         1 3CS      -0.086000
      5 C8          -2.0970    -0.0120    -1.1250 ca         1 3CS      -0.225300
      6 C9          -2.7230    -0.0110     0.1200 ca         1 3CS       0.444600
      7 C10         -4.2290    -0.0170     0.1830 c3         1 3CS       0.092100
      8 C11         -6.1160    -0.0280    -1.2640 ca         1 3CS       0.113100
      9 C12         -6.6950    -0.0340    -2.5190 ca         1 3CS      -0.136000
     10 C13         -6.9150    -0.0340    -0.1250 ca         1 3CS      -0.217000
     11 C14         -8.2870    -0.0470    -0.2310 ca         1 3CS      -0.093000
     12 C15         -8.8880    -0.0520    -1.4870 ca         1 3CS      -0.081200
     13 C16         -8.0820    -0.0450    -2.6360 ca         1 3CS      -0.022800
     14 C19        -11.6740     1.3360    -0.5680 ca         1 3CS      -0.097300
     15 C20        -11.1530     1.8310     0.6130 ca         1 3CS      -0.109500
     16 C21        -11.4440     3.1210     1.0100 ca         1 3CS      -0.103000
     17 C22        -12.7790     3.4250    -0.9540 ca         1 3CS      -0.103000
     18 C24        -12.2580     3.9190     0.2270 ca         1 3CS       0.059900
     19 N26         -2.0370    -0.0060     1.2370 nb         1 3CS      -0.692000
     20 C30         -7.2230    -0.0400    -5.5720 c3         1 3CS      -0.166400
     21 C31         -7.8310     1.2030    -7.6520 c3         1 3CS      -0.083100
     22 C32         -5.6610    -0.0280    -7.5210 c3         1 3CS      -0.083100
     23 C33         -7.1310    -0.0400    -7.0990 c3         1 3CS      -0.058000
     24 C34         -7.8090    -1.2950    -7.6500 c3         1 3CS      -0.083100
     25 C4           1.3900    -0.0010     2.3960 ca         1 3CS      -0.124000
     26 C5           0.0300    -0.0000     2.4330 ca         1 3CS      -0.163300
     27 C6          -0.7010    -0.0000     1.2320 ca         1 3CS       0.424600
     28 N17        -10.2070    -0.0640    -1.9000 na         1 3CS      -0.047400
     29 C18        -11.3620    -0.0730    -0.9990 c3         1 3CS       0.072600
     30 C23        -12.4880     2.1340    -1.3520 ca         1 3CS      -0.109500
     31 I25        -12.7000     5.8760     0.8310 i          1 3CS      -0.192900
     32 O27         -4.7620    -0.0230    -1.1420 os         1 3CS      -0.342900
     33 C28         -9.0140    -0.0530    -3.7810 cc         1 3CS      -0.299400
     34 C29         -8.6720    -0.0520    -5.1560 c          1 3CS       0.611300
     35 O35         -9.5450    -0.0600    -5.9990 o          1 3CS      -0.544100
     36 C36        -10.2840    -0.0650    -3.2440 cd         1 3CS       0.092700
     37 C37        -11.5640    -0.0770    -4.0400 c3         1 3CS      -0.020200
     38 C38        -10.9670    -2.2320    -5.1570 c3         1 3CS      -0.073100
     39 C39        -12.1170    -2.2500    -2.9390 c3         1 3CS      -0.073100
     40 C40        -12.0020    -1.5240    -4.2800 c3         1 3CS      -0.156000
     41 C41        -13.3390    -1.5340    -4.9730 c          1 3CS       0.902600
     42 O42        -13.8860    -0.4920    -5.2480 o          1 3CS      -0.842800
     43 O43        -13.9240    -2.7010    -5.2870 o          1 3CS      -0.842800
     44 H2           1.9490     0.0000    -0.9360 ha         1 3CS       0.131000
     45 H3           3.1600    -0.0000     1.1830 ha         1 3CS       0.126000
     46 H7          -0.2300    -0.0060    -2.1610 ha         1 3CS       0.140000
     47 H8          -2.6900    -0.0680    -2.0300 ha         1 3CS       0.165000
     48 H101        -4.5650    -0.9020     0.7110 h1         1 3CS       0.058700
     49 H102        -4.5720     0.8670     0.7070 h1         1 3CS       0.058700
     50 H12         -6.0740    -0.0290    -3.4060 ha         1 3CS       0.144000
     51 H13         -6.4520    -0.0300     0.8550 ha         1 3CS       0.128000
     52 H14         -8.9000    -0.0520     0.6620 ha         1 3CS       0.121000
     53 H20        -10.5150     1.2060     1.2260 ha         1 3CS       0.150000
     54 H21        -11.0350     3.5080     1.9360 ha         1 3CS       0.140000
     55 H22        -13.4170     4.0500    -1.5670 ha         1 3CS       0.140000
     56 H301        -6.7430     0.8490    -5.1810 hc         1 3CS       0.058200
     57 H302        -6.7280    -0.9200    -5.1800 hc         1 3CS       0.058200
     58 H311        -7.3560     1.5030    -8.5780 hc         1 3CS       0.034811
     59 H312        -8.8740     0.9770    -7.8390 hc         1 3CS       0.034811
     60 H313        -7.7600     2.0090    -6.9320 hc         1 3CS       0.034811
     61 H321        -5.5960    -0.0280    -8.6030 hc         1 3CS       0.034811
     62 H322        -5.1800     0.8610    -7.1310 hc         1 3CS       0.034811
     63 H323        -5.1650    -0.9080    -7.1300 hc         1 3CS       0.034811
     64 H341        -7.7560    -2.0880    -6.9140 hc         1 3CS       0.034811
     65 H342        -8.8470    -1.0770    -7.8720 hc         1 3CS       0.034811
     66 H343        -7.3050    -1.6100    -8.5560 hc         1 3CS       0.034811
     67 H4           1.9480    -0.0010     3.3240 ha         1 3CS       0.128000
     68 H5          -0.4880    -0.0010     3.3850 ha         1 3CS       0.146000
     69 H181       -12.2180    -0.4920    -1.5140 h1         1 3CS       0.086200
     70 H182       -11.1350    -0.6760    -0.1280 h1         1 3CS       0.086200
     71 H23        -12.8970     1.7470    -2.2780 ha         1 3CS       0.150000
     72 H371       -11.4010     0.4130    -4.9920 hc         1 3CS       0.079200
     73 H372       -12.3360     0.4480    -3.4900 hc         1 3CS       0.079200
     74 H381       -11.2450    -3.2720    -5.2760 hc         1 3CS       0.027867
     75 H382       -10.9290    -1.7540    -6.1280 hc         1 3CS       0.027867
     76 H383        -9.9930    -2.1700    -4.6860 hc         1 3CS       0.027867
     77 H391       -11.1620    -2.2170    -2.4280 hc         1 3CS       0.027867
     78 H392       -12.8700    -1.7670    -2.3290 hc         1 3CS       0.027867
     79 H393       -12.3990    -3.2820    -3.1100 hc         1 3CS       0.027867
@<TRIPOS>BOND
     1     1    27 ar  
     2     1     4 ar  
     3     1     2 ar  
     4     2     3 ar  
     5     2    44 1   
     6     3    25 ar  
     7     3    45 1   
     8     4     5 ar  
     9     4    46 1   
    10     5     6 ar  
    11     5    47 1   
    12     6     7 1   
    13     6    19 ar  
    14     7    32 1   
    15     7    48 1   
    16     7    49 1   
    17     8     9 ar  
    18     8    10 ar  
    19     8    32 1   
    20     9    13 ar  
    21     9    50 1   
    22    10    11 ar  
    23    10    51 1   
    24    11    12 ar  
    25    11    52 1   
    26    12    28 1   
    27    12    13 ar  
    28    13    33 1   
    29    14    30 ar  
    30    14    15 ar  
    31    14    29 1   
    32    15    16 ar  
    33    15    53 1   
    34    16    18 ar  
    35    16    54 1   
    36    17    18 ar  
    37    17    30 ar  
    38    17    55 1   
    39    18    31 1   
    40    19    27 ar  
    41    20    23 1   
    42    20    34 1   
    43    20    56 1   
    44    20    57 1   
    45    21    23 1   
    46    21    58 1   
    47    21    59 1   
    48    21    60 1   
    49    22    23 1   
    50    22    61 1   
    51    22    62 1   
    52    22    63 1   
    53    23    24 1   
    54    24    64 1   
    55    24    65 1   
    56    24    66 1   
    57    25    26 ar  
    58    25    67 1   
    59    26    27 ar  
    60    26    68 1   
    61    28    36 1   
    62    28    29 1   
    63    29    69 1   
    64    29    70 1   
    65    30    71 1   
    66    33    34 1   
    67    33    36 2   
    68    34    35 2   
    69    36    37 1   
    70    37    40 1   
    71    37    72 1   
    72    37    73 1   
    73    38    40 1   
    74    38    74 1   
    75    38    75 1   
    76    38    76 1   
    77    39    40 1   
    78    39    77 1   
    79    39    78 1   
    80    39    79 1   
    81    40    41 1   
    82    41    42 1   
    83    41    43 1   
@<TRIPOS>SUBSTRUCTURE
     1 3CS         1 TEMP              0 ****  ****    0 ROOT
