@<TRIPOS>MOLECULE
3CS
   79    83     1     0     0
SMALL
bcc


@<TRIPOS>ATOM
      1 C1         -1.5240   -1.0780   -1.1730 ca        1 3CS     -0.147300
      2 C2         -0.5290   -1.8570   -1.8160 ca        1 3CS     -0.107000
      3 C3          0.7500   -1.8990   -1.3190 ca        1 3CS     -0.136000
      4 C7         -2.8620   -1.0060   -1.6550 ca        1 3CS     -0.086000
      5 C8         -3.7790   -0.2380   -0.9860 ca        1 3CS     -0.228300
      6 C9         -3.3650    0.4820    0.1860 ca        1 3CS      0.407600
      7 C10        -4.4020    1.2970    0.9320 c3        1 3CS      0.075100
      8 C11        -6.4130    1.5780   -0.3130 ca        1 3CS      0.058100
      9 C12        -6.6860    1.4540   -1.6770 ca        1 3CS     -0.126000
     10 C13        -7.3750    1.2960    0.6760 ca        1 3CS     -0.171000
     11 C14        -8.6470    0.8750    0.3160 ca        1 3CS     -0.115000
     12 C15        -8.9440    0.7360   -1.0460 ca        1 3CS     -0.068200
     13 C16        -7.9520    1.0190   -2.0640 ca        1 3CS     -0.032800
     14 C19       -12.2720    1.1960   -0.8200 ca        1 3CS     -0.087300
     15 C20       -11.9010    2.2700   -0.0060 ca        1 3CS     -0.115000
     16 C21       -12.7810    3.3300    0.2050 ca        1 3CS     -0.112500
     17 C22       -14.4110    2.2520   -1.2160 ca        1 3CS     -0.112500
     18 C24       -14.0400    3.3180   -0.3970 ca        1 3CS      0.026900
     19 N26        -2.1250    0.4430    0.6630 nb        1 3CS     -0.668000
     20 C30        -6.5020    0.6260   -4.7260 c3        1 3CS     -0.168400
     21 C31        -6.0860    0.8800   -7.1880 c3        1 3CS     -0.091433
     22 C32        -4.5710   -0.4920   -5.7890 c3        1 3CS     -0.091433
     23 C33        -6.0210   -0.0690   -6.0010 c3        1 3CS     -0.040000
     24 C34        -6.8620   -1.3030   -6.2830 c3        1 3CS     -0.091433
     25 C4          1.0870   -1.1640   -0.1580 ca        1 3CS     -0.131000
     26 C5          0.1500   -0.3990    0.4910 ca        1 3CS     -0.166300
     27 C6         -1.1950   -0.3320   -0.0000 ca        1 3CS      0.398600
     28 N17       -10.1210    0.3150   -1.6860 na        1 3CS     -0.047400
     29 C18       -11.3600    0.0160   -1.0180 c3        1 3CS      0.042600
     30 C23       -13.5300    1.1930   -1.4340 ca        1 3CS     -0.115000
     31 I25       -15.3220    4.8520   -0.0800 i         1 3CS     -0.182900
     32 O27        -5.1690    2.1010    0.0380 os        1 3CS     -0.334900
     33 C28        -8.5850    0.7580   -3.3360 cc        1 3CS     -0.297400
     34 C29        -7.9840    0.9060   -4.6520 c         1 3CS      0.627300
     35 O35        -8.6300    1.2630   -5.6490 o         1 3CS     -0.567100
     36 C36        -9.9100    0.3310   -3.0680 cd        1 3CS      0.114700
     37 C37       -10.9450   -0.0480   -4.0660 c3        1 3CS     -0.058200
     38 C38       -11.2980   -1.7320   -5.8480 c3        1 3CS     -0.071600
     39 C39        -9.8070   -2.3060   -3.9570 c3        1 3CS     -0.071600
     40 C40       -11.0580   -1.5480   -4.3550 c3        1 3CS     -0.169000
     41 C41       -12.2810   -2.1900   -3.6260 c         1 3CS      0.915600
     42 O42       -13.1660   -1.4280   -3.1280 o         1 3CS     -0.840300
     43 O43       -12.3430   -3.4460   -3.5730 o         1 3CS     -0.840300
     44 H2         -0.8050   -2.4240   -2.7180 ha        1 3CS      0.134000
     45 H3          1.5250   -2.5020   -1.8140 ha        1 3CS      0.129000
     46 H7         -3.1390   -1.5680   -2.5590 ha        1 3CS      0.142000
     47 H8         -4.8230   -0.1480   -1.3240 ha        1 3CS      0.167000
     48 H101       -3.9180    2.0450    1.6190 h1        1 3CS      0.070200
     49 H102       -5.0460    0.5950    1.5240 h1        1 3CS      0.070200
     50 H12        -5.9170    1.7180   -2.4170 ha        1 3CS      0.145000
     51 H13        -7.1160    1.4220    1.7370 ha        1 3CS      0.129000
     52 H14        -9.4010    0.6530    1.0850 ha        1 3CS      0.135000
     53 H20       -10.9040    2.2850    0.4610 ha        1 3CS      0.175500
     54 H21       -12.4740    4.1700    0.8450 ha        1 3CS      0.137000
     55 H22       -15.3980    2.2350   -1.7040 ha        1 3CS      0.137000
     56 H301       -5.9700    1.6110   -4.6290 hc        1 3CS      0.059200
     57 H302       -6.2140   -0.0120   -3.8470 hc        1 3CS      0.059200
     58 H311       -7.1390    1.2160   -7.3530 hc        1 3CS      0.036256
     59 H312       -5.4470    1.7760   -7.0040 hc        1 3CS      0.036256
     60 H313       -5.7230    0.3660   -8.1100 hc        1 3CS      0.036256
     61 H321       -3.9360    0.3980   -5.5610 hc        1 3CS      0.036256
     62 H322       -4.1770   -0.9840   -6.7100 hc        1 3CS      0.036256
     63 H323       -4.4920   -1.2130   -4.9400 hc        1 3CS      0.036256
     64 H341       -7.9300   -1.0130   -6.4490 hc        1 3CS      0.036256
     65 H342       -6.8150   -2.0120   -5.4220 hc        1 3CS      0.036256
     66 H343       -6.4870   -1.8250   -7.1960 hc        1 3CS      0.036256
     67 H4          2.1190   -1.2130    0.2210 ha        1 3CS      0.128000
     68 H5          0.4160    0.1720    1.3940 ha        1 3CS      0.145000
     69 H181      -11.1120   -0.4170   -0.0060 h1        1 3CS      0.109700
     70 H182      -11.9060   -0.7790   -1.6300 h1        1 3CS      0.109700
     71 H23       -13.8140    0.3460   -2.0950 ha        1 3CS      0.175500
     72 H371      -10.6880    0.5010   -5.0150 hc        1 3CS      0.087700
     73 H372      -11.9580    0.3150   -3.7240 hc        1 3CS      0.087700
     74 H381      -12.1880   -1.1400   -6.1690 hc        1 3CS      0.027533
     75 H382      -11.4910   -2.8110   -6.0610 hc        1 3CS      0.027533
     76 H383      -10.4090   -1.3960   -6.4360 hc        1 3CS      0.027533
     77 H391       -8.9090   -1.8970   -4.4820 hc        1 3CS      0.027533
     78 H392       -9.9310   -3.3850   -4.2230 hc        1 3CS      0.027533
     79 H393       -9.6420   -2.2420   -2.8550 hc        1 3CS      0.027533
@<TRIPOS>BOND
     1    1    2 ar  
     2    1    4 ar  
     3    1   27 ar  
     4    2    3 ar  
     5    2   44 1   
     6    3   25 ar  
     7    3   45 1   
     8    4    5 ar  
     9    4   46 1   
    10    5    6 ar  
    11    5   47 1   
    12    6    7 1   
    13    6   19 ar  
    14    7   32 1   
    15    7   48 1   
    16    7   49 1   
    17    8    9 ar  
    18    8   10 ar  
    19    8   32 1   
    20    9   13 ar  
    21    9   50 1   
    22   10   11 ar  
    23   10   51 1   
    24   11   12 ar  
    25   11   52 1   
    26   12   13 ar  
    27   12   28 1   
    28   13   33 1   
    29   14   15 ar  
    30   14   29 1   
    31   14   30 ar  
    32   15   16 ar  
    33   15   53 1   
    34   16   18 ar  
    35   16   54 1   
    36   17   18 ar  
    37   17   30 ar  
    38   17   55 1   
    39   18   31 1   
    40   19   27 ar  
    41   20   23 1   
    42   20   34 1   
    43   20   56 1   
    44   20   57 1   
    45   21   23 1   
    46   21   58 1   
    47   21   59 1   
    48   21   60 1   
    49   22   23 1   
    50   22   61 1   
    51   22   62 1   
    52   22   63 1   
    53   23   24 1   
    54   24   64 1   
    55   24   65 1   
    56   24   66 1   
    57   25   26 ar  
    58   25   67 1   
    59   26   27 ar  
    60   26   68 1   
    61   28   29 1   
    62   28   36 1   
    63   29   69 1   
    64   29   70 1   
    65   30   71 1   
    66   33   34 1   
    67   33   36 2   
    68   34   35 2   
    69   36   37 1   
    70   37   40 1   
    71   37   72 1   
    72   37   73 1   
    73   38   40 1   
    74   38   74 1   
    75   38   75 1   
    76   38   76 1   
    77   39   40 1   
    78   39   77 1   
    79   39   78 1   
    80   39   79 1   
    81   40   41 1   
    82   41   42 1   
    83   41   43 1   
@<TRIPOS>SUBSTRUCTURE
     1 3CS         1 TEMP              0 ****  ****    0 ROOT
