@<TRIPOS>MOLECULE
molecule
   29    30     1     0     0
SMALL
bcc


@<TRIPOS>ATOM
      1 O7           0.0000     0.0000     0.0000 oh         1 3CU      -0.593800
      2 C7           1.4290     0.0000     0.0000 c3         1 3CU       0.135100
      3 C7A          1.9620     0.0000     1.4410 c3         1 3CU       0.149500
      4 C1           2.9640     1.1660     1.6140 c3         1 3CU       0.096100
      5 O1           2.2960     2.3560     2.0410 oh         1 3CU      -0.593800
      6 C2           3.8940     0.6200     2.7290 c3         1 3CU       0.104100
      7 O2           5.1880     1.2190     2.6450 oh         1 3CU      -0.609800
      8 C3           3.9680    -0.8880     2.4130 c3         1 3CU       0.146500
      9 C8           3.9680    -1.6930     3.7140 c3         1 3CU       0.155400
     10 O8           2.8450    -1.3100     4.5100 oh         1 3CU      -0.605800
     11 N4           2.7790    -1.2290     1.6120 n3         1 3CU      -0.664600
     12 C5           3.2000    -1.6300     0.2450 c3         1 3CU       0.113800
     13 C6           1.9660    -1.3060    -0.6300 c3         1 3CU       0.118100
     14 OXT          2.3500    -1.0900    -1.9890 oh         1 3CU      -0.606800
     15 H7          -0.3140     0.6760    -0.5770 ho         1 3CU       0.406000
     16 HA           1.8100     0.8590    -0.5390 h1         1 3CU       0.055700
     17 H7A          1.1600     0.0500     2.1670 h1         1 3CU       0.121700
     18 H6           1.2280    -2.0950    -0.5540 h1         1 3CU       0.069700
     19 H1           3.5190     1.3340     0.6990 h1         1 3CU       0.055700
     20 HB           2.7190     3.1080     1.6610 ho         1 3CU       0.404000
     21 H2           3.4530     0.7830     3.7050 h1         1 3CU       0.085700
     22 HC           5.3170     1.7930     3.3810 ho         1 3CU       0.408000
     23 H3           4.8660    -1.0990     1.8440 h1         1 3CU       0.073700
     24 H8C1         4.8820    -1.4960     4.2600 h1         1 3CU       0.027700
     25 H8C2         3.9040    -2.7500     3.4840 h1         1 3CU       0.027700
     26 H8           2.7800    -1.8820     5.2570 ho         1 3CU       0.402000
     27 H5C1         3.4210    -2.6900     0.2120 h1         1 3CU       0.055200
     28 H5C2         4.0550    -1.0460    -0.0740 h1         1 3CU       0.055200
     29 HOT          2.0390    -1.8040    -2.5200 ho         1 3CU       0.408000
@<TRIPOS>BOND
     1     1     2 1   
     2     2     3 1   
     3     2    13 1   
     4     3     4 1   
     5     3    11 1   
     6     4     5 1   
     7     4     6 1   
     8     6     7 1   
     9     6     8 1   
    10     8     9 1   
    11     8    11 1   
    12     9    10 1   
    13    11    12 1   
    14    12    13 1   
    15    13    14 1   
    16     1    15 1   
    17     2    16 1   
    18     3    17 1   
    19    13    18 1   
    20     4    19 1   
    21     5    20 1   
    22     6    21 1   
    23     7    22 1   
    24     8    23 1   
    25     9    24 1   
    26     9    25 1   
    27    10    26 1   
    28    12    27 1   
    29    12    28 1   
    30    14    29 1   
@<TRIPOS>SUBSTRUCTURE
     1 3CU         1 TEMP              0 ****  ****    0 ROOT
