@<TRIPOS>MOLECULE
molecule
   33    33     1     0     0
SMALL
bcc


@<TRIPOS>ATOM
      1 OAA          0.0000     0.0000     0.0000 o          1 3CX      -0.706200
      2 OAB          2.1540     0.0000     1.2180 o          1 3CX      -0.706200
      3 OAC          2.4470     2.8490     0.6670 oh         1 3CX      -0.606800
      4 OAD          1.7970    -1.3160    -0.6640 o          1 3CX      -0.706200
      5 CAE          1.8010     8.7410    -3.1880 c3         1 3CX      -0.079400
      6 CAF          2.9240     8.5140    -2.1750 c3         1 3CX      -0.080400
      7 CAG          1.5380     7.4450    -3.9570 c3         1 3CX      -0.080400
      8 CAH          2.5130     7.4140    -1.1940 c3         1 3CX      -0.076400
      9 CAI          1.1270     6.3440    -2.9770 c3         1 3CX      -0.076400
     10 CAJ          2.1620     3.7310    -1.5650 c3         1 3CX       0.146800
     11 CAK          2.0580     1.2740    -1.1250 c3         1 3CX      -0.266600
     12 NAL          1.8560     5.0610    -1.0220 n7         1 3CX      -0.826200
     13 CAM          1.7370     2.6600    -0.5590 c3         1 3CX       0.169100
     14 CAN          2.2500     6.1180    -1.9640 c3         1 3CX       0.168500
     15 SAO          1.4210     0.0000     0.0000 s6         1 3CX       1.256800
     16 HOAC         1.8350     3.0390     1.3590 ho         1 3CX       0.400000
     17 HAF          3.8240     8.2130    -2.6970 hc         1 3CX       0.035700
     18 HAFA         3.1070     9.4320    -1.6290 hc         1 3CX       0.035700
     19 HAG          2.4410     7.1450    -4.4760 hc         1 3CX       0.035700
     20 HAGA         0.7410     7.6060    -4.6720 hc         1 3CX       0.035700
     21 HAH          1.6100     7.7140    -0.6750 hc         1 3CX       0.047700
     22 HAHA         3.3100     7.2530    -0.4790 hc         1 3CX       0.047700
     23 HAI          0.9440     5.4270    -3.5220 hc         1 3CX       0.047700
     24 HAIA         0.2270     6.6460    -2.4550 hc         1 3CX       0.047700
     25 HAJ          3.2270     3.6520    -1.7480 h1         1 3CX       0.036200
     26 HAJA         1.6250     3.5870    -2.4940 h1         1 3CX       0.036200
     27 HAK          1.5910     1.1640    -2.0960 h1         1 3CX       0.081200
     28 HAKA         3.1310     1.1640    -1.2250 h1         1 3CX       0.081200
     29 HNAL         2.3410     5.1880    -0.1560 hn         1 3CX       0.359800
     30 HAM          0.6720     2.7380    -0.3760 h1         1 3CX       0.047700
     31 HAN          3.1520     5.8230    -2.4870 h1         1 3CX       0.024700
     32 HAE          0.8990     9.0380    -2.6650 hc         1 3CX       0.034700
     33 HAEA         2.0950     9.5180    -3.8830 hc         1 3CX       0.034700
@<TRIPOS>BOND
     1     1    15 1
     2     2    15 1
     3     3    13 1
     4     4    15 1
     5     5     6 1
     6     5     7 1
     7     6     8 1
     8     7     9 1
     9     8    14 1
    10     9    14 1
    11    10    12 1
    12    10    13 1
    13    11    13 1
    14    11    15 1
    15    12    14 1
    16     3    16 1
    17     5    32 1
    18     5    33 1
    19     6    17 1
    20     6    18 1
    21     7    19 1
    22     7    20 1
    23     8    21 1
    24     8    22 1
    25     9    23 1
    26     9    24 1
    27    10    25 1
    28    10    26 1
    29    11    27 1
    30    11    28 1
    31    12    29 1
    32    13    30 1
    33    14    31 1
@<TRIPOS>SUBSTRUCTURE
     1 3CX         1 TEMP              0 ****  ****    0 ROOT
