@<TRIPOS>MOLECULE
3CX
   33    33     1     0     0
SMALL
bcc


@<TRIPOS>ATOM
      1 OAA          0.0000     0.0000     0.0000 o          1 3CX      -0.658867
      2 OAB          2.1540     0.0000     1.2180 o          1 3CX      -0.658867
      3 OAC          2.4470     2.8490     0.6670 oh         1 3CX      -0.586800
      4 OAD          1.7970    -1.3160    -0.6640 o          1 3CX      -0.658867
      5 CAE          1.8010     8.7410    -3.1880 c3         1 3CX      -0.024400
      6 CAF          2.9240     8.5140    -2.1750 c3         1 3CX      -0.022900
      7 CAG          1.5380     7.4450    -3.9570 c3         1 3CX      -0.022900
      8 CAH          2.5130     7.4140    -1.1940 c3         1 3CX      -0.026900
      9 CAI          1.1270     6.3440    -2.9770 c3         1 3CX      -0.026900
     10 CAJ          2.1620     3.7310    -1.5650 c3         1 3CX       0.112800
     11 CAK          2.0580     1.2740    -1.1250 c3         1 3CX      -0.074600
     12 NAL          1.8560     5.0610    -1.0220 n7         1 3CX      -0.594200
     13 CAM          1.7370     2.6600    -0.5590 c3         1 3CX       0.221100
     14 CAN          2.2500     6.1180    -1.9640 c3         1 3CX       0.119500
     15 SAO          1.4210     0.0000     0.0000 s6         1 3CX       0.957800
     16 HOAC         1.8350     3.0390     1.3590 ho         1 3CX       0.390000
     17 HAF          3.8240     8.2130    -2.6970 hc         1 3CX       0.007950
     18 HAFA         3.1070     9.4320    -1.6290 hc         1 3CX       0.007950
     19 HAG          2.4410     7.1450    -4.4760 hc         1 3CX       0.007950
     20 HAGA         0.7410     7.6060    -4.6720 hc         1 3CX       0.007950
     21 HAH          1.6100     7.7140    -0.6750 hc         1 3CX       0.020450
     22 HAHA         3.3100     7.2530    -0.4790 hc         1 3CX       0.020450
     23 HAI          0.9440     5.4270    -3.5220 hc         1 3CX       0.020450
     24 HAIA         0.2270     6.6460    -2.4550 hc         1 3CX       0.020450
     25 HAJ          3.2270     3.6520    -1.7480 h1         1 3CX       0.011200
     26 HAJA         1.6250     3.5870    -2.4940 h1         1 3CX       0.011200
     27 HAK          1.5910     1.1640    -2.0960 h1         1 3CX       0.055700
     28 HAKA         3.1310     1.1640    -1.2250 h1         1 3CX       0.055700
     29 HNAL         2.3410     5.1880    -0.1560 hn         1 3CX       0.264800
     30 HAM          0.6720     2.7380    -0.3760 h1         1 3CX       0.015700
     31 HAN          3.1520     5.8230    -2.4870 h1         1 3CX       0.010700
     32 HAE          0.8990     9.0380    -2.6650 hc         1 3CX       0.008200
     33 HAEA         2.0950     9.5180    -3.8830 hc         1 3CX       0.008200
@<TRIPOS>BOND
     1     1    15 1   
     2     2    15 1   
     3     3    13 1   
     4     3    16 1   
     5     4    15 1   
     6     5     6 1   
     7     5     7 1   
     8     5    32 1   
     9     5    33 1   
    10     6     8 1   
    11     6    17 1   
    12     6    18 1   
    13     7     9 1   
    14     7    19 1   
    15     7    20 1   
    16     8    14 1   
    17     8    21 1   
    18     8    22 1   
    19     9    14 1   
    20     9    23 1   
    21     9    24 1   
    22    10    12 1   
    23    10    13 1   
    24    10    25 1   
    25    10    26 1   
    26    11    13 1   
    27    11    15 1   
    28    11    27 1   
    29    11    28 1   
    30    12    14 1   
    31    12    29 1   
    32    13    30 1   
    33    14    31 1   
@<TRIPOS>SUBSTRUCTURE
     1 3CX         1 TEMP              0 ****  ****    0 ROOT
