@<TRIPOS>MOLECULE
molecule
   77    80     1     0     0
SMALL
bcc


@<TRIPOS>ATOM
      1 C1           0.0000     0.0000     0.0000 ca         1 3CY      -0.119000
      2 C2           1.4220     0.0000     0.0000 ca         1 3CY      -0.136500
      3 C3           2.1320     0.0000     1.2320 ca         1 3CY      -0.142000
      4 C4           1.4250     0.0070     2.4630 ca         1 3CY      -0.136500
      5 C5           0.0090     0.0070     2.4540 ca         1 3CY      -0.119000
      6 C6          -0.7260     0.0040     1.2230 ca         1 3CY      -0.061300
      7 C7          -2.2540     0.0110     1.2570 c3         1 3CY       0.043000
      8 S1          -2.8930    -0.8520     2.7000 ss         1 3CY      -0.304200
      9 C8          -4.6680    -0.5730     2.5580 c3         1 3CY      -0.078300
     10 C9          -5.4400    -1.1860     3.7480 c          1 3CY       0.518100
     11 C10         -6.9640    -0.9010     3.6970 c3         1 3CY       0.039700
     12 O1          -4.8900    -0.6770     4.7900 o          1 3CY      -0.497100
     13 N1          -7.6080    -1.2500     2.4610 ns         1 3CY      -0.535900
     14 C11         -7.7330    -1.6200     4.8590 c3         1 3CY      -0.226400
     15 C12         -8.3580    -0.6920     5.9000 c          1 3CY       0.938600
     16 O2          -9.1970    -1.1170     6.6650 o          1 3CY      -0.826800
     17 O3          -8.0200     0.4580     5.9640 o          1 3CY      -0.826800
     18 C13         -8.1420    -0.2720     1.7450 c          1 3CY       0.643100
     19 O4          -8.1150     0.9540     2.0620 o          1 3CY      -0.589100
     20 C21         -8.9910     1.0430    -0.9830 ca         1 3CY       0.093600
     21 N2          -9.7170     0.3950    -0.0150 n          1 3CY      -0.342000
     22 C14         -8.8730    -0.7090     0.4720 c3         1 3CY       0.008700
     23 C15         -7.9870    -1.0690    -0.7920 c3         1 3CY      -0.029100
     24 C16         -7.9950     0.2450    -1.4790 ca         1 3CY      -0.146300
     25 C17         -7.1430     0.7080    -2.5040 ca         1 3CY      -0.100000
     26 C18         -7.3250     2.0210    -3.0030 ca         1 3CY      -0.164000
     27 C19         -8.3490     2.8630    -2.4750 ca         1 3CY      -0.108000
     28 C20         -9.2120     2.3950    -1.4400 ca         1 3CY      -0.078300
     29 C22        -10.3050     3.2730    -0.7960 c3         1 3CY      -0.034100
     30 C23        -11.7380     2.7730    -0.5040 c3         1 3CY      -0.078400
     31 C24        -11.9640     1.2820    -0.6630 c3         1 3CY       0.045700
     32 C25        -11.0680     0.4310     0.2560 c          1 3CY       0.698500
     33 O5         -11.6200    -0.2150     1.1910 o          1 3CY      -0.606500
     34 N3         -13.3530     0.9070    -0.3850 ns         1 3CY      -0.541900
     35 C26        -14.2990     1.0250    -1.3220 c          1 3CY       0.634100
     36 C27        -15.6930     0.5480    -0.8880 c3         1 3CY       0.070700
     37 O6         -14.1230     1.4590    -2.5050 o          1 3CY      -0.670100
     38 N4         -16.7120     1.5280    -1.3150 ns         1 3CY      -0.522900
     39 C30        -17.0400     2.6130    -0.5630 c          1 3CY       0.653100
     40 C31        -18.1230     3.4910    -1.2040 c3         1 3CY      -0.170100
     41 O9         -16.5250     2.9100     0.5660 o          1 3CY      -0.651100
     42 C28        -15.9440    -0.8430    -1.5200 c3         1 3CY      -0.223400
     43 C29        -17.2950    -1.4590    -1.1830 c          1 3CY       0.926600
     44 O8         -17.9980    -1.8880    -2.0730 o          1 3CY      -0.837300
     45 O7         -17.6600    -1.5320    -0.0260 o          1 3CY      -0.837300
     46 H1          -0.5360    -0.0030    -0.9410 ha         1 3CY       0.144000
     47 H2           1.9640     0.0420    -0.9370 ha         1 3CY       0.127000
     48 H3           3.2160    -0.0060     1.2320 ha         1 3CY       0.120000
     49 H4           1.9610    -0.1070     3.3970 ha         1 3CY       0.127000
     50 H5          -0.5290     0.0100     3.3950 ha         1 3CY       0.144000
     51 H71         -2.6010     1.0370     1.2770 h1         1 3CY       0.063200
     52 H72         -2.6280    -0.4710     0.3620 h1         1 3CY       0.063200
     53 H81         -4.8570     0.4940     2.5260 h1         1 3CY       0.072200
     54 H82         -5.0240    -1.0210     1.6380 h1         1 3CY       0.072200
     55 H10         -7.0940     0.1660     3.8360 h1         1 3CY       0.170700
     56 HN1         -7.8680    -2.2000     2.2840 hn         1 3CY       0.315500
     57 H111        -8.5210    -2.2210     4.4230 hc         1 3CY       0.032200
     58 H112        -7.0400    -2.2810     5.3660 hc         1 3CY       0.032200
     59 H14         -9.5080    -1.5560     0.7030 h1         1 3CY       0.084700
     60 H151        -6.9830    -1.3520    -0.4990 hc         1 3CY       0.063200
     61 H152        -8.4600    -1.8310    -1.3980 hc         1 3CY       0.063200
     62 H17         -6.3650     0.0690    -2.9050 ha         1 3CY       0.124000
     63 H18         -6.6820     2.3900    -3.7930 ha         1 3CY       0.121000
     64 H19         -8.4760     3.8650    -2.8670 ha         1 3CY       0.128000
     65 H221        -9.9030     3.6140     0.1500 hc         1 3CY       0.050200
     66 H222       -10.4100     4.1430    -1.4330 hc         1 3CY       0.050200
     67 H231       -11.8910     2.9670     0.5500 hc         1 3CY       0.077200
     68 H232       -12.3540     3.2310    -1.2680 hc         1 3CY       0.077200
     69 H24        -11.7380     1.0170    -1.6890 h1         1 3CY       0.082700
     70 HN3        -13.5980     0.5590     0.5220 hn         1 3CY       0.360500
     71 H27        -15.7180     0.4580     0.1910 h1         1 3CY       0.095700
     72 HN4        -17.1780     1.3890    -2.1900 hn         1 3CY       0.330500
     73 H311       -18.3300     4.3370    -0.5600 hc         1 3CY       0.050033
     74 H312       -19.0270     2.9090    -1.3380 hc         1 3CY       0.050033
     75 H313       -17.7770     3.8460    -2.1670 hc         1 3CY       0.050033
     76 H281       -15.8710    -0.7470    -2.5970 hc         1 3CY       0.040700
     77 H282       -15.1660    -1.5170    -1.1830 hc         1 3CY       0.040700
@<TRIPOS>BOND
     1     1     2 ar
     2     1     6 ar
     3     1    46 1
     4     2     3 ar
     5     2    47 1
     6     3     4 ar
     7     3    48 1
     8     4     5 ar
     9     4    49 1
    10     5     6 ar
    11     5    50 1
    12     6     7 1
    13     7     8 1
    14     7    51 1
    15     7    52 1
    16     8     9 1
    17     9    10 1
    18     9    53 1
    19     9    54 1
    20    10    11 1
    21    10    12 2
    22    11    13 1
    23    11    14 1
    24    11    55 1
    25    13    18 1
    26    13    56 1
    27    14    15 1
    28    14    57 1
    29    14    58 1
    30    15    16 1
    31    15    17 1
    32    18    19 2
    33    18    22 1
    34    20    21 1
    35    20    24 ar
    36    20    28 ar
    37    21    22 1
    38    21    32 1
    39    22    23 1
    40    22    59 1
    41    23    24 1
    42    23    60 1
    43    23    61 1
    44    24    25 ar
    45    25    26 ar
    46    25    62 1
    47    26    27 ar
    48    26    63 1
    49    27    28 ar
    50    27    64 1
    51    28    29 1
    52    29    30 1
    53    29    65 1
    54    29    66 1
    55    30    31 1
    56    30    67 1
    57    30    68 1
    58    31    32 1
    59    31    34 1
    60    31    69 1
    61    32    33 2
    62    34    35 1
    63    34    70 1
    64    35    36 1
    65    35    37 2
    66    36    38 1
    67    36    42 1
    68    36    71 1
    69    38    39 1
    70    38    72 1
    71    39    40 1
    72    39    41 2
    73    40    73 1
    74    40    74 1
    75    40    75 1
    76    42    43 1
    77    42    76 1
    78    42    77 1
    79    43    44 1
    80    43    45 1
@<TRIPOS>SUBSTRUCTURE
     1 3CY         1 TEMP              0 ****  ****    0 ROOT
