@<TRIPOS>MOLECULE
3CZ
   56    58     1     0     0
SMALL
bcc


@<TRIPOS>ATOM
      1 O3           0.0000     0.0000     0.0000 o          1 3CZ      -0.455000
      2 N2           1.2180     0.0000     0.0000 no         1 3CZ       1.054200
      3 O4           1.8270     0.0000     1.0550 o          1 3CZ      -0.455000
      4 C5           1.9580    -0.0050    -1.2810 ca         1 3CZ      -0.485200
      5 C12          1.2650    -0.0090    -2.4790 ca         1 3CZ       0.021000
      6 C14          1.9510    -0.0130    -3.6760 ca         1 3CZ      -0.174000
      7 C13          3.3410     0.0020    -1.2800 ca         1 3CZ       0.021000
      8 C15          4.0340    -0.0010    -2.4740 ca         1 3CZ      -0.174000
      9 C6           3.3410    -0.0120    -3.6780 ca         1 3CZ       0.079600
     10 N3           4.0400    -0.0160    -4.8880 nh         1 3CZ      -0.352000
     11 C4           5.4900    -0.0130    -4.6590 c3         1 3CZ       0.113800
     12 C1           6.2160    -0.2010    -5.9950 c3         1 3CZ       0.207500
     13 C22          5.9160    -1.5930    -6.5520 c3         1 3CZ      -0.028100
     14 C7           3.6330     1.1130    -5.7350 c3         1 3CZ       0.127800
     15 C2           4.2820     0.9730    -7.1150 c3         1 3CZ       0.229800
     16 N1           5.7340     0.8230    -6.9350 n3         1 3CZ      -0.536500
     17 S1           6.7980     1.7790    -7.7690 sy         1 3CZ       1.057200
     18 O1           6.0860     2.9570    -8.1220 o          1 3CZ      -0.587800
     19 O2           8.0000     1.7960    -7.0130 o          1 3CZ      -0.587800
     20 C3           7.1700     0.9520    -9.2790 ca         1 3CZ      -0.168500
     21 C10          6.3990     1.1830   -10.4030 ca         1 3CZ       0.008500
     22 C17          6.6920     0.5340   -11.5880 ca         1 3CZ      -0.139000
     23 C11          8.2370     0.0750    -9.3410 ca         1 3CZ       0.008500
     24 C16          8.5300    -0.5740   -10.5260 ca         1 3CZ      -0.139000
     25 C9           7.7550    -0.3470   -11.6490 ca         1 3CZ      -0.018300
     26 C8           8.0740    -1.0550   -12.9400 c3         1 3CZ      -0.024700
     27 C21          8.3870    -0.0220   -14.0250 c3         1 3CZ       0.006900
     28 C20          9.2880    -1.9640   -12.7370 c3         1 3CZ       0.006900
     29 C19          6.8710    -1.8980   -13.3710 c3         1 3CZ       0.006900
     30 H12          0.1820    -0.0090    -2.4770 ha         1 3CZ       0.130500
     31 H14          1.4080    -0.0190    -4.6130 ha         1 3CZ       0.130000
     32 H13          3.8810     0.0110    -0.3410 ha         1 3CZ       0.130500
     33 H15          5.1180     0.0020    -2.4730 ha         1 3CZ       0.130000
     34 H4           5.7500    -0.8250    -3.9900 h1         1 3CZ       0.031700
     35 H4A          5.7840     0.9320    -4.2190 h1         1 3CZ       0.031700
     36 H1           7.2830    -0.0840    -5.8480 h1         1 3CZ       0.061700
     37 H22          6.7710    -2.2390    -6.3900 hc         1 3CZ       0.015367
     38 H22A         5.7140    -1.5210    -7.6140 hc         1 3CZ       0.015367
     39 H22B         5.0510    -2.0050    -6.0470 hc         1 3CZ       0.015367
     40 H7           3.9540     2.0410    -5.2770 h1         1 3CZ       0.027200
     41 H7A          2.5550     1.1120    -5.8420 h1         1 3CZ       0.027200
     42 H2           4.0790     1.8600    -7.7040 h1         1 3CZ       0.031700
     43 H2A          3.8860     0.0980    -7.6160 h1         1 3CZ       0.031700
     44 H10          5.5660     1.8740   -10.3560 ha         1 3CZ       0.120000
     45 H17          6.0860     0.7140   -12.4680 ha         1 3CZ       0.122000
     46 H11          8.8440    -0.1030    -8.4620 ha         1 3CZ       0.120000
     47 H16          9.3640    -1.2630   -10.5740 ha         1 3CZ       0.122000
     48 H21          9.1000     0.6980   -13.6430 hc         1 3CZ       0.008700
     49 H21A         7.4750     0.4890   -14.3100 hc         1 3CZ       0.008700
     50 H21B         8.8070    -0.5220   -14.8890 hc         1 3CZ       0.008700
     51 H20         10.1390    -1.3680   -12.4310 hc         1 3CZ       0.008700
     52 H20A         9.5190    -2.4710   -13.6660 hc         1 3CZ       0.008700
     53 H20B         9.0660    -2.6970   -11.9710 hc         1 3CZ       0.008700
     54 H19          7.1480    -2.5180   -14.2140 hc         1 3CZ       0.008700
     55 H19A         6.0560    -1.2440   -13.6560 hc         1 3CZ       0.008700
     56 H19B         6.5580    -2.5280   -12.5470 hc         1 3CZ       0.008700
@<TRIPOS>BOND
     1     1     2 1   
     2     2     3 1   
     3     2     4 1   
     4     4     5 ar  
     5     4     7 ar  
     6     5     6 ar  
     7     5    30 1   
     8     6     9 ar  
     9     6    31 1   
    10     7     8 ar  
    11     7    32 1   
    12     8     9 ar  
    13     8    33 1   
    14     9    10 1   
    15    10    11 1   
    16    10    14 1   
    17    11    12 1   
    18    11    34 1   
    19    11    35 1   
    20    12    13 1   
    21    12    16 1   
    22    12    36 1   
    23    13    37 1   
    24    13    38 1   
    25    13    39 1   
    26    14    15 1   
    27    14    40 1   
    28    14    41 1   
    29    15    16 1   
    30    15    42 1   
    31    15    43 1   
    32    16    17 1   
    33    17    18 2   
    34    17    19 2   
    35    17    20 1   
    36    20    21 ar  
    37    20    23 ar  
    38    21    22 ar  
    39    21    44 1   
    40    22    25 ar  
    41    22    45 1   
    42    23    24 ar  
    43    23    46 1   
    44    24    25 ar  
    45    24    47 1   
    46    25    26 1   
    47    26    27 1   
    48    26    28 1   
    49    26    29 1   
    50    27    48 1   
    51    27    49 1   
    52    27    50 1   
    53    28    51 1   
    54    28    52 1   
    55    28    53 1   
    56    29    54 1   
    57    29    55 1   
    58    29    56 1   
@<TRIPOS>SUBSTRUCTURE
     1 3CZ         1 TEMP              0 ****  ****    0 ROOT
