@<TRIPOS>MOLECULE
3D0
   90    91     1     0     0
SMALL
bcc


@<TRIPOS>ATOM
      1 CBM          0.0000     0.0000     0.0000 ca         1 3D0      -0.091500
      2 CBN          1.3830     0.0000     0.0000 ca         1 3D0      -0.078500
      3 CBO          2.0740     0.0000     1.1970 ca         1 3D0      -0.061000
      4 CBP          1.3830     0.0020     2.3950 ca         1 3D0      -0.078500
      5 CBQ          0.0010     0.0030     2.3940 ca         1 3D0      -0.091500
      6 CBL         -0.6910     0.0010     1.1980 ca         1 3D0      -0.141300
      7 CBK         -2.1980     0.0070     1.1970 c3         1 3D0       0.035900
      8 CBG         -2.7140    -1.4330     1.1940 c3         1 3D0      -0.043300
      9 CBH         -4.2160    -1.4280     1.0710 c          1 3D0       0.282100
     10 OBJ         -4.8980    -1.9260     1.9430 o          1 3D0      -0.384100
     11 NBI         -4.8020    -0.8700    -0.0070 nz         1 3D0       0.197600
     12 NBE         -2.3290    -2.0920     2.4460 ns         1 3D0      -0.183900
     13 CBD         -2.2080    -3.4330     2.4910 c          1 3D0       0.600100
     14 OBF         -2.4180    -4.0950     1.4960 o          1 3D0      -0.636100
     15 CAZ         -1.8130    -4.1110     3.7780 c3         1 3D0       0.042500
     16 CBA         -0.4410    -3.6010     4.2210 c3         1 3D0       0.169100
     17 CBB          0.6190    -4.0400     3.2090 c3         1 3D0      -0.040100
     18 OBC         -0.1230    -4.1420     5.5060 oh         1 3D0      -0.574800
     19 NAY         -1.7500    -5.5630     3.5670 n7         1 3D0      -0.573200
     20 CAX         -2.3550    -6.2850     4.6940 c3         1 3D0       0.117800
     21 CAG         -2.1530    -7.7900     4.5040 c3         1 3D0       0.020700
     22 NAF         -2.6850    -8.1930     3.2000 ns         1 3D0      -0.173900
     23 C           -2.2050    -9.2940     2.5880 c          1 3D0       0.546100
     24 O           -1.3330    -9.9510     3.1160 o          1 3D0      -0.598100
     25 CA          -2.7520    -9.7080     1.2460 c3         1 3D0      -0.026300
     26 N           -2.4530   -11.1230     1.0120 ns         1 3D0      -0.203900
     27 CAB         -1.1730   -11.5460     0.9870 c          1 3D0       0.579100
     28 OAQ         -0.2690   -10.7540     1.1570 o          1 3D0      -0.616100
     29 CAA         -0.8650   -13.0010     0.7460 c3         1 3D0      -0.063100
     30 CB          -2.1050    -8.8620     0.1480 c3         1 3D0      -0.062400
     31 CG          -2.7500    -9.1950    -1.1990 c3         1 3D0      -0.016400
     32 CD          -2.1030    -8.3490    -2.2970 c3         1 3D0      -0.033400
     33 CE          -2.7480    -8.6820    -3.6450 c3         1 3D0      -0.056200
     34 NZ          -2.1270    -7.8700    -4.6990 nz         1 3D0       0.088400
     35 CAH         -2.8880    -8.5480     5.6110 c3         1 3D0       0.191400
     36 OAI         -4.2620    -8.1550     5.6260 os         1 3D0      -0.433600
     37 CAJ         -5.0430    -8.8070     6.6290 c3         1 3D0       0.281700
     38 CAK         -6.4680    -8.3200     6.5530 ca         1 3D0      -0.233600
     39 CAL         -7.3890    -8.9700     5.7460 ca         1 3D0      -0.050000
     40 CAM         -8.6880    -8.4860     5.7070 ca         1 3D0      -0.227300
     41 CAN         -9.0180    -7.3810     6.4700 ca         1 3D0       0.414200
     42 NAO         -8.1150    -6.7890     7.2250 nb         1 3D0      -0.582000
     43 CAP         -6.8720    -7.2250     7.2910 ca         1 3D0       0.425200
     44 H1          -0.5420    -0.0010    -0.9380 ha         1 3D0       0.097000
     45 H2           1.9240    -0.0010    -0.9380 ha         1 3D0       0.118500
     46 H3           3.1570    -0.0000     1.1970 ha         1 3D0       0.122000
     47 H4           1.9250     0.0030     3.3330 ha         1 3D0       0.118500
     48 H5          -0.5410     0.0040     3.3330 ha         1 3D0       0.097000
     49 H6          -2.5570     0.5210     0.3130 hc         1 3D0       0.022200
     50 H7          -2.5580     0.5180     2.0820 hc         1 3D0       0.022200
     51 H8          -2.2850    -1.9690     0.3570 h1         1 3D0       0.087700
     52 H9          -4.2050    -0.9770    -0.8030 hn         1 3D0       0.246800
     53 H10         -4.9580     0.1040     0.1650 hn         1 3D0       0.246800
     54 H11         -2.2210    -1.5520     3.2820 hn         1 3D0       0.205500
     55 H12         -2.5460    -3.8880     4.5440 h1         1 3D0       0.062700
     56 H13         -0.4590    -2.5200     4.2790 h1         1 3D0      -0.006300
     57 H14          0.1960    -4.0200     2.2120 hc         1 3D0       0.024367
     58 H15          0.9470    -5.0460     3.4420 hc         1 3D0       0.024367
     59 H16          1.4650    -3.3640     3.2560 hc         1 3D0       0.024367
     60 H17          0.2390    -3.4630     6.0520 ho         1 3D0       0.408000
     61 H18         -0.7950    -5.8450     3.4640 hn         1 3D0       0.285800
     62 H20         -1.8840    -5.9710     5.6180 h1         1 3D0       0.035700
     63 H21         -3.4150    -6.0650     4.7370 h1         1 3D0       0.035700
     64 H22         -1.0950    -8.0210     4.5490 h1         1 3D0       0.068700
     65 H23         -3.4310    -7.6730     2.7820 hn         1 3D0       0.178500
     66 H24         -3.8250    -9.5590     1.2320 h1         1 3D0       0.031700
     67 H25         -3.1990   -11.7830     0.9190 hn         1 3D0       0.177500
     68 H26         -1.4740   -13.3690    -0.0710 hc         1 3D0       0.027033
     69 H27          0.1830   -13.1110     0.4930 hc         1 3D0       0.027033
     70 H28         -1.0810   -13.5690     1.6430 hc         1 3D0       0.027033
     71 H29         -1.0440    -9.0770     0.1030 hc         1 3D0       0.053700
     72 H30         -2.2510    -7.8110     0.3680 hc         1 3D0       0.053700
     73 H31         -2.6040   -10.2460    -1.4190 hc         1 3D0       0.025700
     74 H32         -3.8110    -8.9800    -1.1540 hc         1 3D0       0.025700
     75 H33         -1.0430    -8.5650    -2.3420 hc         1 3D0       0.034700
     76 H34         -2.2490    -7.2990    -2.0770 hc         1 3D0       0.034700
     77 H35         -2.6020    -9.7330    -3.8660 hx         1 3D0       0.086700
     78 H36         -3.8090    -8.4660    -3.6010 hx         1 3D0       0.086700
     79 H37         -1.1420    -8.0450    -4.7180 hn         1 3D0       0.222800
     80 H38         -2.2900    -6.9000    -4.5130 hn         1 3D0       0.222800
     81 H40         -2.8190    -9.6130     5.4270 h1         1 3D0       0.013700
     82 H41         -2.4360    -8.3170     6.5680 h1         1 3D0       0.013700
     83 H42         -5.0180    -9.8780     6.4660 h1         1 3D0       0.002200
     84 H43         -4.6360    -8.5810     7.6070 h1         1 3D0       0.002200
     85 H44         -7.1000    -9.8340     5.1590 ha         1 3D0       0.109000
     86 H45         -9.4350    -8.9680     5.0880 ha         1 3D0       0.116000
     87 H46        -10.0300    -6.9960     6.4430 h4         1 3D0      -0.016900
     88 H47         -6.1580    -6.7110     7.9230 h4         1 3D0      -0.016900
     89 HBI3        -5.6830    -1.3130    -0.1750 hn         1 3D0       0.246800
     90 HZ3         -2.5170    -8.1190    -5.5860 hn         1 3D0       0.222800
@<TRIPOS>BOND
     1     1     2 ar  
     2     1     6 ar  
     3     1    44 1   
     4     2     3 ar  
     5     2    45 1   
     6     3     4 ar  
     7     3    46 1   
     8     4     5 ar  
     9     4    47 1   
    10     5     6 ar  
    11     5    48 1   
    12     6     7 1   
    13     7     8 1   
    14     7    49 1   
    15     7    50 1   
    16     8     9 1   
    17     8    12 1   
    18     8    51 1   
    19     9    10 2   
    20     9    11 1   
    21    11    52 1   
    22    11    53 1   
    23    11    89 1   
    24    12    13 1   
    25    12    54 1   
    26    13    14 2   
    27    13    15 1   
    28    15    16 1   
    29    15    19 1   
    30    15    55 1   
    31    16    17 1   
    32    16    18 1   
    33    16    56 1   
    34    17    57 1   
    35    17    58 1   
    36    17    59 1   
    37    18    60 1   
    38    19    20 1   
    39    19    61 1   
    40    20    21 1   
    41    20    62 1   
    42    20    63 1   
    43    21    22 1   
    44    21    35 1   
    45    21    64 1   
    46    22    23 1   
    47    22    65 1   
    48    23    24 2   
    49    23    25 1   
    50    25    26 1   
    51    25    30 1   
    52    25    66 1   
    53    26    27 1   
    54    26    67 1   
    55    27    28 2   
    56    27    29 1   
    57    29    68 1   
    58    29    69 1   
    59    29    70 1   
    60    30    31 1   
    61    30    71 1   
    62    30    72 1   
    63    31    32 1   
    64    31    73 1   
    65    31    74 1   
    66    32    33 1   
    67    32    75 1   
    68    32    76 1   
    69    33    34 1   
    70    33    77 1   
    71    33    78 1   
    72    34    79 1   
    73    34    80 1   
    74    34    90 1   
    75    35    36 1   
    76    35    81 1   
    77    35    82 1   
    78    36    37 1   
    79    37    38 1   
    80    37    83 1   
    81    37    84 1   
    82    38    39 ar  
    83    38    43 ar  
    84    39    40 ar  
    85    39    85 1   
    86    40    41 ar  
    87    40    86 1   
    88    41    42 ar  
    89    41    87 1   
    90    42    43 ar  
    91    43    88 1   
@<TRIPOS>SUBSTRUCTURE
     1 3D0         1 TEMP              0 ****  ****    0 ROOT
