@<TRIPOS>MOLECULE
molecule
   90    91     1     0     0
SMALL
bcc


@<TRIPOS>ATOM
      1 CBM          0.0000     0.0000     0.0000 ca         1 3D0      -0.117000
      2 CBN          1.3830     0.0000     0.0000 ca         1 3D0      -0.110500
      3 CBO          2.0740     0.0000     1.1970 ca         1 3D0      -0.094000
      4 CBP          1.3830     0.0020     2.3950 ca         1 3D0      -0.110500
      5 CBQ          0.0010     0.0030     2.3940 ca         1 3D0      -0.117000
      6 CBL         -0.6910     0.0010     1.1980 ca         1 3D0      -0.119300
      7 CBK         -2.1980     0.0070     1.1970 c3         1 3D0      -0.044100
      8 CBG         -2.7140    -1.4330     1.1940 c3         1 3D0       0.051700
      9 CBH         -4.2160    -1.4280     1.0710 c          1 3D0       0.448100
     10 OBJ         -4.8980    -1.9260     1.9430 o          1 3D0      -0.381100
     11 NBI         -4.8020    -0.8700    -0.0070 nz         1 3D0      -0.683400
     12 NBE         -2.3290    -2.0920     2.4460 ns         1 3D0      -0.566900
     13 CBD         -2.2080    -3.4330     2.4910 c          1 3D0       0.677100
     14 OBF         -2.4180    -4.0950     1.4960 o          1 3D0      -0.591100
     15 CAZ         -1.8130    -4.1110     3.7780 c3         1 3D0       0.097500
     16 CBA         -0.4410    -3.6010     4.2210 c3         1 3D0       0.120100
     17 CBB          0.6190    -4.0400     3.2090 c3         1 3D0      -0.122100
     18 OBC         -0.1230    -4.1420     5.5060 oh         1 3D0      -0.595800
     19 NAY         -1.7500    -5.5630     3.5670 n7         1 3D0      -0.801200
     20 CAX         -2.3550    -6.2850     4.6940 c3         1 3D0       0.139800
     21 CAG         -2.1530    -7.7900     4.5040 c3         1 3D0       0.127700
     22 NAF         -2.6850    -8.1930     3.2000 ns         1 3D0      -0.568900
     23 C           -2.2050    -9.2940     2.5880 c          1 3D0       0.639100
     24 O           -1.3330    -9.9510     3.1160 o          1 3D0      -0.563100
     25 CA          -2.7520    -9.7080     1.2460 c3         1 3D0       0.057700
     26 N           -2.4530   -11.1230     1.0120 ns         1 3D0      -0.590900
     27 CAB         -1.1730   -11.5460     0.9870 c          1 3D0       0.662100
     28 OAQ         -0.2690   -10.7540     1.1570 o          1 3D0      -0.584100
     29 CAA         -0.8650   -13.0010     0.7460 c3         1 3D0      -0.167100
     30 CB          -2.1050    -8.8620     0.1480 c3         1 3D0      -0.099400
     31 CG          -2.7500    -9.1950    -1.1990 c3         1 3D0      -0.073400
     32 CD          -2.1030    -8.3490    -2.2970 c3         1 3D0      -0.109400
     33 CE          -2.7480    -8.6820    -3.6450 c3         1 3D0       0.087800
     34 NZ          -2.1270    -7.8700    -4.6990 nz         1 3D0      -0.810600
     35 CAH         -2.8880    -8.5480     5.6110 c3         1 3D0       0.118400
     36 OAI         -4.2620    -8.1550     5.6260 os         1 3D0      -0.445600
     37 CAJ         -5.0430    -8.8070     6.6290 c3         1 3D0       0.189700
     38 CAK         -6.4680    -8.3200     6.5530 ca         1 3D0      -0.219600
     39 CAL         -7.3890    -8.9700     5.7460 ca         1 3D0      -0.076000
     40 CAM         -8.6880    -8.4860     5.7070 ca         1 3D0      -0.259300
     41 CAN         -9.0180    -7.3810     6.4700 ca         1 3D0       0.428200
     42 NAO         -8.1150    -6.7890     7.2250 nb         1 3D0      -0.689000
     43 CAP         -6.8720    -7.2250     7.2910 ca         1 3D0       0.439200
     44 H1          -0.5420    -0.0010    -0.9380 ha         1 3D0       0.120500
     45 H2           1.9240    -0.0010    -0.9380 ha         1 3D0       0.150000
     46 H3           3.1570    -0.0000     1.1970 ha         1 3D0       0.156000
     47 H4           1.9250     0.0030     3.3330 ha         1 3D0       0.150000
     48 H5          -0.5410     0.0040     3.3330 ha         1 3D0       0.120500
     49 H6          -2.5570     0.5210     0.3130 hc         1 3D0       0.057200
     50 H7          -2.5580     0.5180     2.0820 hc         1 3D0       0.057200
     51 H8          -2.2850    -1.9690     0.3570 h1         1 3D0       0.117700
     52 H9          -4.2050    -0.9770    -0.8030 hn         1 3D0       0.476133
     53 H10         -4.9580     0.1040     0.1650 hn         1 3D0       0.476133
     54 H11         -2.2210    -1.5520     3.2820 hn         1 3D0       0.343500
     55 H12         -2.5460    -3.8880     4.5440 h1         1 3D0       0.091700
     56 H13         -0.4590    -2.5200     4.2790 h1         1 3D0       0.025700
     57 H14          0.1960    -4.0200     2.2120 hc         1 3D0       0.055367
     58 H15          0.9470    -5.0460     3.4420 hc         1 3D0       0.055367
     59 H16          1.4650    -3.3640     3.2560 hc         1 3D0       0.055367
     60 H17          0.2390    -3.4630     6.0520 ho         1 3D0       0.421000
     61 H18         -0.7950    -5.8450     3.4640 hn         1 3D0       0.381800
     62 H20         -1.8840    -5.9710     5.6180 h1         1 3D0       0.063700
     63 H21         -3.4150    -6.0650     4.7370 h1         1 3D0       0.063700
     64 H22         -1.0950    -8.0210     4.5490 h1         1 3D0       0.094700
     65 H23         -3.4310    -7.6730     2.7820 hn         1 3D0       0.320500
     66 H24         -3.8250    -9.5590     1.2320 h1         1 3D0       0.061700
     67 H25         -3.1990   -11.7830     0.9190 hn         1 3D0       0.321500
     68 H26         -1.4740   -13.3690    -0.0710 hc         1 3D0       0.066367
     69 H27          0.1830   -13.1110     0.4930 hc         1 3D0       0.066367
     70 H28         -1.0810   -13.5690     1.6430 hc         1 3D0       0.066367
     71 H29         -1.0440    -9.0770     0.1030 hc         1 3D0       0.080200
     72 H30         -2.2510    -7.8110     0.3680 hc         1 3D0       0.080200
     73 H31         -2.6040   -10.2460    -1.4190 hc         1 3D0       0.056200
     74 H32         -3.8110    -8.9800    -1.1540 hc         1 3D0       0.056200
     75 H33         -1.0430    -8.5650    -2.3420 hc         1 3D0       0.065700
     76 H34         -2.2490    -7.2990    -2.0770 hc         1 3D0       0.065700
     77 H35         -2.6020    -9.7330    -3.8660 hx         1 3D0       0.113200
     78 H36         -3.8090    -8.4660    -3.6010 hx         1 3D0       0.113200
     79 H37         -1.1420    -8.0450    -4.7180 hn         1 3D0       0.456467
     80 H38         -2.2900    -6.9000    -4.5130 hn         1 3D0       0.456467
     81 H40         -2.8190    -9.6130     5.4270 h1         1 3D0       0.047700
     82 H41         -2.4360    -8.3170     6.5680 h1         1 3D0       0.047700
     83 H42         -5.0180    -9.8780     6.4660 h1         1 3D0       0.039200
     84 H43         -4.6360    -8.5810     7.6070 h1         1 3D0       0.039200
     85 H44         -7.1000    -9.8340     5.1590 ha         1 3D0       0.138000
     86 H45         -9.4350    -8.9680     5.0880 ha         1 3D0       0.142000
     87 H46        -10.0300    -6.9960     6.4430 h4         1 3D0       0.029100
     88 H47         -6.1580    -6.7110     7.9230 h4         1 3D0       0.026100
     89 HBI3        -5.6830    -1.3130    -0.1750 hn         1 3D0       0.476133
     90 HZ3         -2.5170    -8.1190    -5.5860 hn         1 3D0       0.456467
@<TRIPOS>BOND
     1     2     3 ar  
     2     2     1 ar  
     3     3     4 ar  
     4     1     6 ar  
     5     4     5 ar  
     6     6     5 ar  
     7     6     7 1   
     8     7     8 1   
     9    34    33 1   
    10    11     9 1   
    11    33    32 1   
    12     8    12 1   
    13     8     9 1   
    14    32    31 1   
    15    12    13 1   
    16     9    10 2   
    17    31    30 1   
    18    13    15 1   
    19    13    14 2   
    20    30    25 1   
    21    15    16 1   
    22    15    19 1   
    23    16    17 1   
    24    16    18 1   
    25    20    19 1   
    26    20    21 1   
    27    25    23 1   
    28    25    26 1   
    29    23    22 1   
    30    23    24 2   
    31    22    21 1   
    32    21    35 1   
    33    26    27 1   
    34    35    36 1   
    35    27    28 2   
    36    27    29 1   
    37    36    37 1   
    38    37    38 1   
    39    43    38 ar  
    40    43    42 ar  
    41    38    39 ar  
    42    42    41 ar  
    43    39    40 ar  
    44    41    40 ar  
    45     1    44 1   
    46     2    45 1   
    47     3    46 1   
    48     4    47 1   
    49     5    48 1   
    50     7    49 1   
    51     7    50 1   
    52     8    51 1   
    53    11    52 1   
    54    11    53 1   
    55    12    54 1   
    56    15    55 1   
    57    16    56 1   
    58    17    57 1   
    59    17    58 1   
    60    17    59 1   
    61    18    60 1   
    62    19    61 1   
    63    20    62 1   
    64    20    63 1   
    65    21    64 1   
    66    22    65 1   
    67    25    66 1   
    68    26    67 1   
    69    29    68 1   
    70    29    69 1   
    71    29    70 1   
    72    30    71 1   
    73    30    72 1   
    74    31    73 1   
    75    31    74 1   
    76    32    75 1   
    77    32    76 1   
    78    33    77 1   
    79    33    78 1   
    80    34    79 1   
    81    34    80 1   
    82    35    81 1   
    83    35    82 1   
    84    37    83 1   
    85    37    84 1   
    86    39    85 1   
    87    40    86 1   
    88    41    87 1   
    89    43    88 1   
    90    89    11 1   
    91    90    34 1   
@<TRIPOS>SUBSTRUCTURE
     1 3D0         1 TEMP              0 ****  ****    0 ROOT
