@<TRIPOS>MOLECULE
3D1
   31    33     1     0     0
SMALL
bcc


@<TRIPOS>ATOM
      1 O5'          0.0000     0.0000     0.0000 oh         1 3D1      -0.580800
      2 C5'          1.4280     0.0000     0.0000 c3         1 3D1       0.225400
      3 C4'          1.9390     0.0000     1.4430 c3         1 3D1       0.166100
      4 O4'          1.5990    -1.2390     2.1020 os         1 3D1      -0.387600
      5 C1'          2.5030    -1.3860     3.2100 c3         1 3D1       0.167800
      6 N9           2.8130    -2.8030     3.4160 na         1 3D1       0.191000
      7 C4           3.2410    -3.3790     4.5840 ca         1 3D1       0.229800
      8 N3           3.5030    -2.9350     5.8080 nb         1 3D1      -0.622000
      9 C2           3.9130    -3.7600     6.7490 ca         1 3D1       0.638900
     10 N1           4.0820    -5.0520     6.5340 nb         1 3D1      -0.659000
     11 C6           3.8440    -5.5880     5.3420 ca         1 3D1       0.600200
     12 N6           4.0250    -6.9430     5.1250 nv         1 3D1      -0.645500
     13 C5           3.4060    -4.7460     4.3040 ca         1 3D1      -0.182200
     14 N7           3.0750    -4.9300     3.0040 nc         1 3D1      -0.493100
     15 C8           2.7210    -3.7930     2.4810 cd         1 3D1       0.275700
     16 C2'          3.7890    -0.6150     2.8570 c3         1 3D1      -0.107400
     17 C3'          3.4890     0.0140     1.4740 c3         1 3D1       0.158100
     18 O3'          3.9880     1.3510     1.4020 oh         1 3D1      -0.570800
     19 H5'         -0.3140     0.0320    -0.8880 ho         1 3D1       0.392000
     20 H5'1         1.7890     0.8840    -0.5110 h1         1 3D1      -0.005300
     21 H5'2         1.7890    -0.8840    -0.5110 h1         1 3D1      -0.005300
     22 H4'          1.5420     0.8440     1.9940 h1         1 3D1       0.047700
     23 H1'          2.0590    -0.9670     4.1040 h2         1 3D1       0.053700
     24 H2           4.1180    -3.3640     7.7360 h5         1 3D1      -0.000900
     25 HN61         3.2720    -7.5810     5.2900 hn         1 3D1       0.282300
     26 HN62         4.9180    -7.2880     4.8320 hn         1 3D1       0.282300
     27 H8           2.4000    -3.6520     1.4560 h5         1 3D1       0.040800
     28 H2'1         4.6300    -1.2950     2.7870 hc         1 3D1       0.047200
     29 H2'2         3.9790     0.1590     3.5900 hc         1 3D1       0.047200
     30 H3'          3.8930    -0.6000     0.6780 h1         1 3D1       0.016700
     31 H1           4.8090     1.3550     0.9400 ho         1 3D1       0.396000
@<TRIPOS>BOND
     1     1     2 1   
     2     1    19 1   
     3     2     3 1   
     4     2    20 1   
     5     2    21 1   
     6     3     4 1   
     7     3    17 1   
     8     3    22 1   
     9     4     5 1   
    10     5     6 1   
    11     5    16 1   
    12     5    23 1   
    13     6     7 1   
    14     6    15 1   
    15     7     8 ar  
    16     7    13 ar  
    17     8     9 ar  
    18     9    10 ar  
    19     9    24 1   
    20    10    11 ar  
    21    11    12 1   
    22    11    13 ar  
    23    12    25 1   
    24    12    26 1   
    25    13    14 1   
    26    14    15 2   
    27    15    27 1   
    28    16    17 1   
    29    16    28 1   
    30    16    29 1   
    31    17    18 1   
    32    17    30 1   
    33    18    31 1   
@<TRIPOS>SUBSTRUCTURE
     1 3D1         1 TEMP              0 ****  ****    0 ROOT
