@<TRIPOS>MOLECULE
3D2
   49    50     1     0     0
SMALL
bcc


@<TRIPOS>ATOM
      1 C19          0.0000     0.0000     0.0000 ca         1 3D2       0.424200
      2 C14          3.3780    -0.0020     3.7830 ca         1 3D2      -0.074000
      3 C15          1.9860     0.0100     3.7090 cp         1 3D2       0.005000
      4 C16          1.3120     0.0110     2.3870 cp         1 3D2      -0.181300
      5 C17          2.0600     0.0000     1.2080 ca         1 3D2      -0.054000
      6 C18          1.3830     0.0000     0.0000 ca         1 3D2      -0.204300
      7 C13          4.0000    -0.0070     5.0150 ca         1 3D2      -0.083000
      8 C12          3.2460    -0.0030     6.1750 ca         1 3D2      -0.087000
      9 C11          1.8640     0.0100     6.1060 ca         1 3D2      -0.131300
     10 C22          1.2310     0.0210     4.8800 ca         1 3D2      -0.097000
     11 C10          1.0480     0.0140     7.3740 c3         1 3D2       0.204100
     12 N20         -0.6800     0.0060     1.1300 nb         1 3D2      -0.574000
     13 C21         -0.0790     0.0110     2.3020 ca         1 3D2       0.406200
     14 N09          0.7960     1.4000     7.7890 n7         1 3D2      -0.546200
     15 C03          0.0010     1.4440     9.0230 c3         1 3D2       0.046500
     16 C02         -1.4630     1.3470     8.6820 c          1 3D2       0.274100
     17 O23         -1.8110     1.2510     7.5240 o          1 3D2      -0.376100
     18 N01         -2.3870     1.3660     9.6640 nz         1 3D2       0.195600
     19 C04          0.2670     2.7610     9.7550 c3         1 3D2      -0.018400
     20 C05          1.7280     2.8040    10.2110 c3         1 3D2      -0.009400
     21 C06          1.9940     4.1210    10.9430 c3         1 3D2      -0.035400
     22 C07          3.4540     4.1640    11.4000 c3         1 3D2      -0.048200
     23 N08          3.7100     5.4280    12.1020 nz         1 3D2       0.090400
     24 H1          -0.5330    -0.0020    -0.9430 h4         1 3D2      -0.008900
     25 H3           3.1430     0.0000     1.2370 ha         1 3D2       0.117000
     26 H4           1.9300    -0.0070    -0.9350 ha         1 3D2       0.125000
     27 H5           5.0820    -0.0170     5.0740 ha         1 3D2       0.114000
     28 H6           3.7380    -0.0090     7.1390 ha         1 3D2       0.098000
     29 H7           0.1490     0.0310     4.8270 ha         1 3D2       0.113000
     30 H8           0.1040    -0.4870     7.1970 h1         1 3D2       0.016200
     31 H9           1.5920    -0.5030     8.1550 h1         1 3D2       0.016200
     32 H10         -0.6720     0.0170     3.2090 h4         1 3D2      -0.027900
     33 H11          0.3080     1.8830     7.0600 hn         1 3D2       0.293800
     34 H13          0.2790     0.6130     9.6600 h1         1 3D2       0.074700
     35 H14         -2.0000     0.9610    10.4930 hn         1 3D2       0.250800
     36 H15         -3.1890     0.8400     9.3780 hn         1 3D2       0.250800
     37 H16          0.0720     3.5910     9.0880 hc         1 3D2       0.017700
     38 H17         -0.3820     2.8310    10.6190 hc         1 3D2       0.017700
     39 H18          1.9230     1.9740    10.8780 hc         1 3D2       0.047200
     40 H19          2.3780     2.7340     9.3470 hc         1 3D2       0.047200
     41 H20          1.3430     4.1920    11.8060 hc         1 3D2       0.034200
     42 H21          1.8000     4.9510    10.2750 hc         1 3D2       0.034200
     43 H22          3.6480     3.3340    12.0680 hx         1 3D2       0.090700
     44 H23          4.1050     4.0920    10.5370 hx         1 3D2       0.090700
     45 H24          3.5310     6.1950    11.4850 hn         1 3D2       0.228467
     46 H25          3.1090     5.4950    12.9000 hn         1 3D2       0.228467
     47 H013        -2.6570     2.3120     9.8490 hn         1 3D2       0.250800
     48 H083         4.6640     5.4540    12.4060 hn         1 3D2       0.228467
     49 H2           3.9700    -0.0050     2.8760 ha         1 3D2       0.125000
@<TRIPOS>BOND
     1     1     6 ar  
     2     1    12 ar  
     3     1    24 1   
     4     2     3 ar  
     5     2     7 ar  
     6     2    49 1   
     7     3     4 1   
     8     3    10 ar  
     9     4     5 ar  
    10     4    13 ar  
    11     5     6 ar  
    12     5    25 1   
    13     6    26 1   
    14     7     8 ar  
    15     7    27 1   
    16     8     9 ar  
    17     8    28 1   
    18     9    10 ar  
    19     9    11 1   
    20    10    29 1   
    21    11    14 1   
    22    11    30 1   
    23    11    31 1   
    24    12    13 ar  
    25    13    32 1   
    26    14    15 1   
    27    14    33 1   
    28    15    16 1   
    29    15    19 1   
    30    15    34 1   
    31    16    17 2   
    32    16    18 1   
    33    18    35 1   
    34    18    36 1   
    35    18    47 1   
    36    19    20 1   
    37    19    37 1   
    38    19    38 1   
    39    20    21 1   
    40    20    39 1   
    41    20    40 1   
    42    21    22 1   
    43    21    41 1   
    44    21    42 1   
    45    22    23 1   
    46    22    43 1   
    47    22    44 1   
    48    23    45 1   
    49    23    46 1   
    50    23    48 1   
@<TRIPOS>SUBSTRUCTURE
     1 3D2         1 TEMP              0 ****  ****    0 ROOT
