@<TRIPOS>MOLECULE
3D3
   24    25     1     0     0
SMALL
bcc


@<TRIPOS>ATOM
      1 N1           0.0000     0.0000     0.0000 nc         1 3D3      -0.621700
      2 C3           1.3450     0.0000     0.0000 ca         1 3D3       0.542300
      3 N7           2.2780     0.0000     0.9590 nb         1 3D3      -0.576000
      4 C9           3.5560     0.0060     0.6480 ca         1 3D3       0.643900
      5 N8           3.9810     0.0140    -0.6030 nb         1 3D3      -0.613000
      6 C6           3.1240     0.0150    -1.6220 ca         1 3D3       0.578200
      7 N13          3.5800     0.0230    -2.9310 nv         1 3D3      -0.660500
      8 C2           1.7600     0.0090    -1.3430 ca         1 3D3      -0.531800
      9 N4           0.6040     0.0070    -2.1050 na         1 3D3       0.376700
     10 C5          -0.4470    -0.0010    -1.2360 cd         1 3D3       0.229700
     11 S10         -2.1470    -0.0040    -1.6990 ss         1 3D3      -0.185300
     12 C14         -2.9200    -0.0160    -0.0610 c3         1 3D3      -0.009300
     13 C11         -4.4190    -0.0190    -0.2130 c          1 3D3       0.325100
     14 O12         -4.9160    -0.0150    -1.3180 o          1 3D3      -0.370100
     15 N15         -5.2070    -0.0270     0.8810 nz         1 3D3       0.203600
     16 H9           4.2870     0.0050     1.4470 h5         1 3D3       0.011100
     17 H131         3.7660    -0.8410    -3.4010 hn         1 3D3       0.289300
     18 H132         3.7580     0.8920    -3.3930 hn         1 3D3       0.289300
     19 H4           0.5500     0.0080    -3.1040 hn         1 3D3       0.140700
     20 H141        -2.6140     0.8670     0.4880 h1         1 3D3       0.093700
     21 H142        -2.6090    -0.9020     0.4780 h1         1 3D3       0.093700
     22 H151        -6.1670    -0.0310     0.6000 hn         1 3D3       0.249800
     23 H152        -5.0230     0.7880     1.4300 hn         1 3D3       0.249800
     24 H153        -5.0150    -0.8460     1.4240 hn         1 3D3       0.249800
@<TRIPOS>BOND
     1     1     2 1   
     2     1    10 2   
     3     2     3 ar  
     4     2     8 ar  
     5     3     4 ar  
     6     4     5 ar  
     7     4    16 1   
     8     5     6 ar  
     9     6     7 1   
    10     6     8 ar  
    11     7    17 1   
    12     7    18 1   
    13     8     9 1   
    14     9    10 1   
    15     9    19 1   
    16    10    11 1   
    17    11    12 1   
    18    12    13 1   
    19    12    20 1   
    20    12    21 1   
    21    13    14 2   
    22    13    15 1   
    23    15    22 1   
    24    15    23 1   
    25    15    24 1   
@<TRIPOS>SUBSTRUCTURE
     1 3D3         1 TEMP              0 ****  ****    0 ROOT
