@<TRIPOS>MOLECULE
3D5
   49    50     1     0     0
SMALL
bcc


@<TRIPOS>ATOM
      1 C18          0.0000     0.0000     0.0000 ca         1 3D5      -0.056000
      2 C19          1.3850     0.0000     0.0000 ca         1 3D5      -0.210300
      3 C20          2.0620     0.0000     1.2060 ca         1 3D5       0.429200
      4 N21          1.4090    -0.0010     2.3520 nb         1 3D5      -0.570000
      5 C22          0.0930    -0.0020     2.4020 ca         1 3D5       0.417200
      6 C17         -0.6620     0.0050     1.2310 cp         1 3D5      -0.190300
      7 C16         -2.1450     0.0050     1.2880 cp         1 3D5       0.025000
      8 C15         -2.8910     0.0060     0.1110 ca         1 3D5      -0.096000
      9 C14         -4.2690     0.0050     0.1700 ca         1 3D5      -0.075000
     10 C13         -2.7970    -0.0020     2.5200 ca         1 3D5      -0.096000
     11 C12         -4.1760    -0.0030     2.5680 ca         1 3D5      -0.075000
     12 C11         -4.9110     0.0040     1.3960 ca         1 3D5      -0.151300
     13 C10         -6.4180     0.0030     1.4550 c3         1 3D5       0.206100
     14 N09         -6.9060    -1.3820     1.4720 n7         1 3D5      -0.545200
     15 C03         -8.3740    -1.4210     1.5300 c3         1 3D5       0.047500
     16 C02         -8.9340    -1.3090     0.1350 c          1 3D5       0.275100
     17 O23         -8.1850    -1.2060    -0.8130 o          1 3D5      -0.378100
     18 N01        -10.2680    -1.3220    -0.0590 nz         1 3D5       0.194600
     19 C04         -8.8240    -2.7420     2.1550 c3         1 3D5      -0.018400
     20 C05         -8.3610    -2.8010     3.6120 c3         1 3D5      -0.009400
     21 C06         -8.8120    -4.1220     4.2380 c3         1 3D5      -0.035400
     22 C07         -8.3490    -4.1810     5.6950 c3         1 3D5      -0.048200
     23 N08         -8.7810    -5.4490     6.2960 nz         1 3D5       0.090400
     24 H1          -0.5560     0.0020    -0.9300 ha         1 3D5       0.114000
     25 H2           1.9320    -0.0010    -0.9350 ha         1 3D5       0.123000
     26 H3           3.1450     0.0000     1.2100 h4         1 3D5      -0.009900
     27 H4          -0.4080    -0.0010     3.3630 h4         1 3D5      -0.018900
     28 H5          -2.3890    -0.0510    -0.8470 ha         1 3D5       0.124500
     29 H6          -4.8500     0.0230    -0.7440 ha         1 3D5       0.099000
     30 H7          -2.2230    -0.0680     3.4360 ha         1 3D5       0.124500
     31 H8          -4.6830    -0.0010     3.5250 ha         1 3D5       0.099000
     32 H9          -6.8130     0.5150     0.5850 h1         1 3D5       0.015200
     33 H10         -6.7440     0.5130     2.3530 h1         1 3D5       0.015200
     34 H11         -6.5920    -1.8570     0.6500 hn         1 3D5       0.292800
     35 H13         -8.7340    -0.5950     2.1310 h1         1 3D5       0.074700
     36 H14        -10.5780    -2.2650    -0.1830 hn         1 3D5       0.250133
     37 H15        -10.7250    -0.9230     0.7380 hn         1 3D5       0.250133
     38 H16         -9.9050    -2.8110     2.1170 hc         1 3D5       0.017200
     39 H17         -8.3900    -3.5690     1.6050 hc         1 3D5       0.017200
     40 H18         -8.7940    -1.9740     4.1620 hc         1 3D5       0.047200
     41 H19         -7.2800    -2.7330     3.6510 hc         1 3D5       0.047200
     42 H20         -9.8920    -4.1900     4.2000 hc         1 3D5       0.034200
     43 H21         -8.3780    -4.9490     3.6880 hc         1 3D5       0.034200
     44 H22         -8.7820    -3.3540     6.2450 hx         1 3D5       0.090700
     45 H23         -7.2680    -4.1130     5.7330 hx         1 3D5       0.090700
     46 H24         -8.3800    -6.2130     5.7880 hn         1 3D5       0.228467
     47 H25         -9.7790    -5.5120     6.2610 hn         1 3D5       0.228467
     48 H013       -10.4920    -0.7870    -0.8740 hn         1 3D5       0.250133
     49 H083        -8.4770    -5.4870     7.2490 hn         1 3D5       0.228467
@<TRIPOS>BOND
     1     1     2 ar  
     2     1     6 ar  
     3     1    24 1   
     4     2     3 ar  
     5     2    25 1   
     6     3     4 ar  
     7     3    26 1   
     8     4     5 ar  
     9     5     6 ar  
    10     5    27 1   
    11     6     7 1   
    12     7     8 ar  
    13     7    10 ar  
    14     8     9 ar  
    15     8    28 1   
    16     9    12 ar  
    17     9    29 1   
    18    10    11 ar  
    19    10    30 1   
    20    11    12 ar  
    21    11    31 1   
    22    12    13 1   
    23    13    14 1   
    24    13    32 1   
    25    13    33 1   
    26    14    15 1   
    27    14    34 1   
    28    15    16 1   
    29    15    19 1   
    30    15    35 1   
    31    16    17 2   
    32    16    18 1   
    33    18    36 1   
    34    18    37 1   
    35    18    48 1   
    36    19    20 1   
    37    19    38 1   
    38    19    39 1   
    39    20    21 1   
    40    20    40 1   
    41    20    41 1   
    42    21    22 1   
    43    21    42 1   
    44    21    43 1   
    45    22    23 1   
    46    22    44 1   
    47    22    45 1   
    48    23    46 1   
    49    23    47 1   
    50    23    49 1   
@<TRIPOS>SUBSTRUCTURE
     1 3D5         1 TEMP              0 ****  ****    0 ROOT
