@<TRIPOS>MOLECULE
molecule
   49    50     1     0     0
SMALL
bcc


@<TRIPOS>ATOM
      1 C10          0.0000     0.0000     0.0000 c3         1 3D6       0.193100
      2 C13         -1.1840     0.6470     3.5250 ca         1 3D6      -0.119000
      3 C15         -1.9170     2.7200     4.7000 cp         1 3D6      -0.195300
      4 C17         -2.6060     2.7160     6.9870 ca         1 3D6      -0.246300
      5 C20         -2.1530     4.0930     4.6770 ca         1 3D6       0.439200
      6 C21         -1.1950     2.7310     2.3130 ca         1 3D6      -0.119000
      7 C22         -0.7330     2.0750     1.1910 ca         1 3D6      -0.103500
      8 C02          2.0610    -2.1690    -0.9220 c          1 3D6       0.438100
      9 C03          1.9960    -0.6860    -1.1870 c3         1 3D6       0.147500
     10 C04          3.3990    -0.1620    -1.4970 c3         1 3D6      -0.182400
     11 C05          3.3170     1.3150    -1.8880 c3         1 3D6      -0.033400
     12 C06          4.7210     1.8390    -2.1990 c3         1 3D6      -0.111400
     13 C07          4.6380     3.3170    -2.5900 c3         1 3D6       0.094800
     14 N08          5.9850     3.8190    -2.8890 nz         1 3D6      -0.809600
     15 N09          1.4690     0.0000     0.0000 n7         1 3D6      -0.771200
     16 C11         -0.5030     0.7110     1.2300 ca         1 3D6      -0.132300
     17 C12         -0.7290     0.0000     2.3930 ca         1 3D6      -0.103500
     18 C14         -1.4230     2.0200     3.4890 cp         1 3D6       0.016000
     19 C16         -2.1500     2.0150     5.8840 ca         1 3D6      -0.075000
     20 C18         -2.8160     4.0780     6.8840 ca         1 3D6       0.444200
     21 N19         -2.5880     4.7170     5.7520 nb         1 3D6      -0.679000
     22 H1          -0.3610     0.5100    -0.8850 h1         1 3D6       0.046700
     23 H2          -0.3610    -1.0210     0.0010 h1         1 3D6       0.046700
     24 H3          -1.3600     0.0880     4.4360 ha         1 3D6       0.149500
     25 H4          -2.7970     2.2020     7.9220 ha         1 3D6       0.152000
     26 H5          -1.9780     4.6530     3.7660 h4         1 3D6       0.021100
     27 H6          -1.3760     3.7990     2.2810 ha         1 3D6       0.149500
     28 H7          -0.5560     2.6270     0.2760 ha         1 3D6       0.126000
     29 H8           3.5020    -3.1360    -1.7630 hn         1 3D6       0.479800
     30 H9           2.0510    -3.8870    -1.7980 hn         1 3D6       0.479800
     31 H10          1.3450    -0.4990    -2.0320 h1         1 3D6       0.079700
     32 H11          4.1850    -0.7990    -1.8850 hc         1 3D6       0.068700
     33 H12          2.6510    -0.2130    -2.2790 hc         1 3D6       0.068700
     34 H13          2.8930     1.8830    -1.0680 hc         1 3D6       0.073700
     35 H14          2.6890     1.4230    -2.7640 hc         1 3D6       0.073700
     36 H15          5.3490     1.7320    -1.3230 hc         1 3D6       0.069700
     37 H16          5.1440     1.2720    -3.0190 hc         1 3D6       0.069700
     38 H17          4.0100     3.4240    -3.4660 hx         1 3D6       0.118700
     39 H18          4.2150     3.8840    -1.7700 hx         1 3D6       0.118700
     40 H19          6.3550     3.3330    -3.6810 hn         1 3D6       0.463800
     41 H20          5.9390     4.7990    -3.0910 hn         1 3D6       0.463800
     42 H22          1.8020    -0.4570     0.8260 hn         1 3D6       0.402800
     43 H24         -0.5430    -1.0670     2.4190 ha         1 3D6       0.126000
     44 H25         -1.9770     0.9470     5.9370 ha         1 3D6       0.139000
     45 H26         -3.1730     4.6290     7.7450 h4         1 3D6       0.039100
     46 N01          2.5160    -3.0050    -1.8770 nz         1 3D6      -0.688400
     47 H083         6.5800     3.6700    -2.0980 hn         1 3D6       0.463800
     48 H013         2.3460    -2.6050    -2.7780 hn         1 3D6       0.479800
     49 O23          1.7030    -2.6090     0.1500 o          1 3D6      -0.374100
@<TRIPOS>BOND
     1    14    13 1   
     2    13    12 1   
     3    12    11 1   
     4    11    10 1   
     5    46     8 1   
     6    10     9 1   
     7     8     9 1   
     8     8    49 2   
     9     9    15 1   
    10     7     6 ar  
    11     7    16 ar  
    12    15     1 1   
    13     6    18 ar  
    14     1    16 1   
    15    16    17 ar  
    16     5    21 ar  
    17     5     3 ar  
    18    21    20 ar  
    19    18     3 1   
    20    18     2 ar  
    21     3    19 ar  
    22    20     4 ar  
    23    17     2 ar  
    24    19     4 ar  
    25     1    22 1   
    26     1    23 1   
    27     2    24 1   
    28     4    25 1   
    29     5    26 1   
    30     6    27 1   
    31     7    28 1   
    32    46    29 1   
    33    46    30 1   
    34     9    31 1   
    35    10    32 1   
    36    10    33 1   
    37    11    34 1   
    38    11    35 1   
    39    12    36 1   
    40    12    37 1   
    41    13    38 1   
    42    13    39 1   
    43    14    40 1   
    44    14    41 1   
    45    15    42 1   
    46    17    43 1   
    47    19    44 1   
    48    20    45 1   
    49    47    14 1   
    50    48    46 1   
@<TRIPOS>SUBSTRUCTURE
     1 3D6         1 TEMP              0 ****  ****    0 ROOT
