@<TRIPOS>MOLECULE
3D7
   25    26     1     0     0
SMALL
bcc


@<TRIPOS>ATOM
      1 O            0.0000     0.0000     0.0000 o          1 3D7      -0.678500
      2 C4           1.2210     0.0000     0.0000 c          1 3D7       0.606700
      3 C            1.9260     0.0000     1.2240 cc         1 3D7      -0.558200
      4 N            1.2320     0.0010     2.4400 nz         1 3D7       0.354600
      5 N1           1.8920    -0.0060    -1.1670 ns         1 3D7       0.155900
      6 C3           3.2510    -0.0070    -1.1910 cc         1 3D7      -0.053400
      7 C2           3.9660    -0.0010    -0.0310 cd         1 3D7      -0.064200
      8 C1           3.2920     0.0000     1.2100 cd         1 3D7       0.127000
      9 C5           5.4510    -0.0020    -0.0710 cd         1 3D7      -0.345100
     10 C7           6.2960     1.0290     0.3810 cd         1 3D7       0.414200
     11 N3           7.5330     0.6590     0.1780 nc         1 3D7      -0.614800
     12 N2           7.5270    -0.6130    -0.4080 na         1 3D7       0.527400
     13 C8           8.7090    -1.3860    -0.7950 c3         1 3D7       0.012600
     14 C6           6.2430    -1.0050    -0.5470 cc         1 3D7      -0.220300
     15 H1           1.3830    -0.0110    -2.0290 hn         1 3D7       0.199500
     16 HN1          0.6540    -0.8140     2.4950 hn         1 3D7       0.198800
     17 HN2          0.6600     0.8200     2.4970 hn         1 3D7       0.198800
     18 HA           3.8500     0.0030     2.1380 ha         1 3D7       0.125000
     19 H3           3.7720    -0.0100    -2.1410 h4         1 3D7       0.156000
     20 H7           5.9770     1.9660     0.8210 h4         1 3D7       0.008100
     21 H6           5.9030    -1.9430    -0.9680 h4         1 3D7       0.150000
     22 H81C         8.6740    -1.5920    -1.8580 h1         1 3D7       0.034367
     23 H82C         9.6030    -0.8180    -0.5670 h1         1 3D7       0.034367
     24 H83C         8.7250    -2.3200    -0.2470 h1         1 3D7       0.034367
     25 HN3          1.8860    -0.0150     3.1970 hn         1 3D7       0.198800
@<TRIPOS>BOND
     1     1     2 2   
     2     2     3 1   
     3     2     5 1   
     4     3     4 1   
     5     3     8 2   
     6     4    16 1   
     7     4    17 1   
     8     4    25 1   
     9     5     6 1   
    10     5    15 1   
    11     6     7 2   
    12     6    19 1   
    13     7     8 1   
    14     7     9 1   
    15     8    18 1   
    16     9    10 1   
    17     9    14 2   
    18    10    11 2   
    19    10    20 1   
    20    11    12 1   
    21    12    13 1   
    22    12    14 1   
    23    13    22 1   
    24    13    23 1   
    25    13    24 1   
    26    14    21 1   
@<TRIPOS>SUBSTRUCTURE
     1 3D7         1 TEMP              0 ****  ****    0 ROOT
