@<TRIPOS>MOLECULE
molecule
   25    26     1     0     0
SMALL
bcc


@<TRIPOS>ATOM
      1 O            0.0000     0.0000     0.0000 o          1 3D7      -0.633500
      2 C4           1.2210     0.0000     0.0000 c          1 3D7       0.701700
      3 C            1.9260     0.0000     1.2240 cc         1 3D7      -0.286200
      4 N            1.2320     0.0010     2.4400 nz         1 3D7      -0.625400
      5 N1           1.8920    -0.0060    -1.1670 ns         1 3D7      -0.375100
      6 C3           3.2510    -0.0070    -1.1910 cc         1 3D7       0.087600
      7 C2           3.9660    -0.0010    -0.0310 cd         1 3D7      -0.090200
      8 C1           3.2920     0.0000     1.2100 cd         1 3D7       0.060000
      9 C5           5.4510    -0.0020    -0.0710 cd         1 3D7      -0.332100
     10 C7           6.2960     1.0290     0.3810 cd         1 3D7       0.351200
     11 N3           7.5330     0.6590     0.1780 nc         1 3D7      -0.476800
     12 N2           7.5270    -0.6130    -0.4080 na         1 3D7       0.091400
     13 C8           8.7090    -1.3860    -0.7950 c3         1 3D7       0.054600
     14 C6           6.2430    -1.0050    -0.5470 cc         1 3D7      -0.078300
     15 H1           1.3830    -0.0110    -2.0290 hn         1 3D7       0.376500
     16 HN1          0.6540    -0.8140     2.4950 hn         1 3D7       0.458467
     17 HN2          0.6600     0.8200     2.4970 hn         1 3D7       0.458467
     18 HA           3.8500     0.0030     2.1380 ha         1 3D7       0.161000
     19 H3           3.7720    -0.0100    -2.1410 h4         1 3D7       0.198000
     20 H7           5.9770     1.9660     0.8210 h4         1 3D7       0.055100
     21 H6           5.9030    -1.9430    -0.9680 h4         1 3D7       0.178000
     22 H81C         8.6740    -1.5920    -1.8580 h1         1 3D7       0.069367
     23 H82C         9.6030    -0.8180    -0.5670 h1         1 3D7       0.069367
     24 H83C         8.7250    -2.3200    -0.2470 h1         1 3D7       0.069367
     25 HN3          1.8860    -0.0150     3.1970 hn         1 3D7       0.458467
@<TRIPOS>BOND
     1     1     2 2   
     2     2     3 1   
     3     2     5 1   
     4     3     4 1   
     5     3     8 2   
     6     5     6 1   
     7     6     7 2   
     8     7     8 1   
     9     7     9 1   
    10     9    10 1   
    11     9    14 2   
    12    10    11 2   
    13    11    12 1   
    14    12    13 1   
    15    12    14 1   
    16     5    15 1   
    17     4    16 1   
    18     4    17 1   
    19     8    18 1   
    20     6    19 1   
    21    10    20 1   
    22    14    21 1   
    23    13    22 1   
    24    13    23 1   
    25    13    24 1   
    26    25     4 1   
@<TRIPOS>SUBSTRUCTURE
     1 3D7         1 TEMP              0 ****  ****    0 ROOT
