@<TRIPOS>MOLECULE
3D8
   25    27     1     0     0
SMALL
bcc


@<TRIPOS>ATOM
      1 C4           0.0000     0.0000     0.0000 ca         1 3D8       0.381200
      2 C6          -0.0620     0.0110     2.3030 ca         1 3D8       0.392200
      3 C11          5.0530     0.1960    -4.4480 cc         1 3D8      -0.158000
      4 C8           3.3200     0.6400    -1.2880 cd         1 3D8       0.617200
      5 C9           4.0980     0.5480    -2.4650 cd         1 3D8      -0.489600
      6 C10          3.9260    -0.0910    -3.6780 cc         1 3D8      -0.127000
      7 C12          5.8780     0.9830    -3.7070 cd         1 3D8      -0.297100
      8 C3           1.3900     0.0000     0.0000 ca         1 3D8      -0.143700
      9 C1           1.3180     0.0010     2.3840 ca         1 3D8      -0.203300
     10 C2           2.0650     0.0000     1.2180 ca         1 3D8      -0.063000
     11 N5          -0.6720     0.0060     1.1330 nb         1 3D8      -0.565000
     12 N7           2.0990    -0.0010    -1.2040 nu         1 3D8      -0.242300
     13 N13          5.3130     1.2050    -2.5060 na         1 3D8       0.775200
     14 N14          5.7140     1.9330    -1.3770 nd         1 3D8      -0.745800
     15 C15          4.9470     1.9790    -0.3230 cc         1 3D8       0.741900
     16 N16          3.7750     1.3490    -0.2680 nc         1 3D8      -0.799000
     17 H1          -0.5360    -0.0020    -0.9410 h4         1 3D8      -0.019900
     18 H2          -0.6500     0.0140     3.2120 h4         1 3D8      -0.018900
     19 H4           3.0770    -0.6950    -3.9750 ha         1 3D8       0.123000
     20 H5           6.8350     1.3720    -4.0320 h4         1 3D8       0.155000
     21 H6           1.8100     0.0030     3.3500 ha         1 3D8       0.115000
     22 H7           3.1470    -0.0040     1.2520 ha         1 3D8       0.144000
     23 H8           1.7330    -0.4870    -2.0000 hn         1 3D8       0.292800
     24 H9           5.2760     2.5470     0.5390 h5         1 3D8       0.005100
     25 H3           5.2590    -0.1820    -5.4420 ha         1 3D8       0.131000
@<TRIPOS>BOND
     1     1     8 ar  
     2     1    11 ar  
     3     1    17 1   
     4     2     9 ar  
     5     2    11 ar  
     6     2    18 1   
     7     3     6 1   
     8     3     7 2   
     9     3    25 1   
    10     4     5 1   
    11     4    12 1   
    12     4    16 2   
    13     5     6 2   
    14     5    13 1   
    15     6    19 1   
    16     7    13 1   
    17     7    20 1   
    18     8    10 ar  
    19     8    12 1   
    20     9    10 ar  
    21     9    21 1   
    22    10    22 1   
    23    12    23 1   
    24    13    14 1   
    25    14    15 2   
    26    15    16 1   
    27    15    24 1   
@<TRIPOS>SUBSTRUCTURE
     1 3D8         1 TEMP              0 ****  ****    0 ROOT
