@<TRIPOS>MOLECULE
molecule
   35    38     1     0     0
SMALL
bcc


@<TRIPOS>ATOM
      1 C4           0.0000     0.0000     0.0000 ca         1 3D9      -0.008800
      2 C5           1.3930     0.0000     0.0000 ca         1 3D9      -0.123000
      3 C6           2.0810     0.0000     1.1970 ca         1 3D9      -0.123000
      4 C7          -0.7450    -0.0000    -1.2840 cc         1 3D9      -0.097200
      5 C8          -0.1830     0.0010    -2.5730 cc         1 3D9      -0.139000
      6 C9          -1.2320     0.0020    -3.4680 cd         1 3D9      -0.294600
      7 C10         -1.3070     0.0020    -4.8810 cd         1 3D9       0.791200
      8 C12         -3.6200     0.0010    -4.7550 cc         1 3D9       0.694900
      9 C3          -0.6920    -0.0080     1.2090 ca         1 3D9      -0.123000
     10 C1           1.3880    -0.0020     2.3950 ca         1 3D9      -0.131000
     11 C2           0.0050    -0.0080     2.4000 ca         1 3D9      -0.123000
     12 N11         -2.4930     0.0020    -5.4650 nc         1 3D9      -0.854000
     13 N13         -3.6230     0.0010    -3.4510 nd         1 3D9      -0.576800
     14 N14         -2.4110     0.0000    -2.7450 na         1 3D9       0.245200
     15 C15         -2.1170    -0.0060    -1.4330 cd         1 3D9      -0.088100
     16 N16         -0.1520     0.0040    -5.6420 nu         1 3D9      -0.743300
     17 C17         -0.2320     0.1210    -7.0270 ca         1 3D9       0.179600
     18 C18         -1.2500     0.8630    -7.6250 ca         1 3D9      -0.268800
     19 C19         -1.2930     0.9550    -9.0000 ca         1 3D9       0.434200
     20 N20         -0.3880     0.3500    -9.7480 nb         1 3D9      -0.704000
     21 C21          0.5910    -0.3620    -9.2200 ca         1 3D9       0.434200
     22 C22          0.7070    -0.4980    -7.8530 ca         1 3D9      -0.268800
     23 H1           1.9360     0.0010    -0.9380 ha         1 3D9       0.129000
     24 H2           3.1640     0.0030     1.1990 ha         1 3D9       0.130500
     25 H3           0.8590     0.1740    -2.8130 ha         1 3D9       0.151000
     26 H4          -4.5680     0.0010    -5.2800 h5         1 3D9       0.077100
     27 H5          -1.7750    -0.0100     1.2150 ha         1 3D9       0.129000
     28 H6           1.9320    -0.0020     3.3320 ha         1 3D9       0.130000
     29 H7          -0.5320    -0.0120     3.3410 ha         1 3D9       0.130500
     30 H8          -2.8390    -0.0150    -0.6250 h4         1 3D9       0.187000
     31 H9           0.7410    -0.0580    -5.1950 hn         1 3D9       0.466800
     32 H10         -1.9950     1.3620    -7.0180 ha         1 3D9       0.152500
     33 H11         -2.0800     1.5290    -9.4740 h4         1 3D9       0.026100
     34 H12          1.3140    -0.8410    -9.8680 h4         1 3D9       0.026100
     35 H13          1.5120    -1.0830    -7.4260 ha         1 3D9       0.152500
@<TRIPOS>BOND
     1     3     2 ar  
     2     3    10 ar  
     3    21    22 ar  
     4    21    20 ar  
     5     2     1 ar  
     6    22    17 ar  
     7    10    11 ar  
     8    20    19 ar  
     9     1     4 1   
    10     1     9 ar  
    11    11     9 ar  
    12    17    16 1   
    13    17    18 ar  
    14     5     4 1   
    15     5     6 2   
    16    16     7 1   
    17     4    15 2   
    18    19    18 ar  
    19     6     7 1   
    20     6    14 1   
    21     7    12 2   
    22    15    14 1   
    23    14    13 1   
    24    12     8 1   
    25    13     8 2   
    26     2    23 1   
    27     3    24 1   
    28     5    25 1   
    29     8    26 1   
    30     9    27 1   
    31    10    28 1   
    32    11    29 1   
    33    15    30 1   
    34    16    31 1   
    35    18    32 1   
    36    19    33 1   
    37    21    34 1   
    38    22    35 1   
@<TRIPOS>SUBSTRUCTURE
     1 3D9         1 TEMP              0 ****  ****    0 ROOT
