@<TRIPOS>MOLECULE
3D9
   35    38     1     0     0
SMALL
bcc


@<TRIPOS>ATOM
      1 C4           0.0000     0.0000     0.0000 ca         1 3D9      -0.000800
      2 C5           1.3930     0.0000     0.0000 ca         1 3D9      -0.101500
      3 C6           2.0810     0.0000     1.1970 ca         1 3D9      -0.096000
      4 C7          -0.7450    -0.0000    -1.2840 cc         1 3D9      -0.076200
      5 C8          -0.1830     0.0010    -2.5730 cc         1 3D9      -0.117000
      6 C9          -1.2320     0.0020    -3.4680 cd         1 3D9      -0.488600
      7 C10         -1.3070     0.0020    -4.8810 cd         1 3D9       0.617200
      8 C12         -3.6200     0.0010    -4.7550 cc         1 3D9       0.742900
      9 C3          -0.6920    -0.0080     1.2090 ca         1 3D9      -0.101500
     10 C1           1.3880    -0.0020     2.3950 ca         1 3D9      -0.106000
     11 C2           0.0050    -0.0080     2.4000 ca         1 3D9      -0.096000
     12 N11         -2.4930     0.0020    -5.4650 nc         1 3D9      -0.790000
     13 N13         -3.6230     0.0010    -3.4510 nd         1 3D9      -0.745800
     14 N14         -2.4110     0.0000    -2.7450 na         1 3D9       0.783200
     15 C15         -2.1170    -0.0060    -1.4330 cd         1 3D9      -0.291100
     16 N16         -0.1520     0.0040    -5.6420 nu         1 3D9      -0.249300
     17 C17         -0.2320     0.1210    -7.0270 ca         1 3D9       0.008600
     18 C18         -1.2500     0.8630    -7.6250 ca         1 3D9      -0.236300
     19 C19         -1.2930     0.9550    -9.0000 ca         1 3D9       0.423700
     20 N20         -0.3880     0.3500    -9.7480 nb         1 3D9      -0.594000
     21 C21          0.5910    -0.3620    -9.2200 ca         1 3D9       0.423700
     22 C22          0.7070    -0.4980    -7.8530 ca         1 3D9      -0.236300
     23 H1           1.9360     0.0010    -0.9380 ha         1 3D9       0.106000
     24 H2           3.1640     0.0030     1.1990 ha         1 3D9       0.101500
     25 H3           0.8590     0.1740    -2.8130 ha         1 3D9       0.127000
     26 H4          -4.5680     0.0010    -5.2800 h5         1 3D9       0.007100
     27 H5          -1.7750    -0.0100     1.2150 ha         1 3D9       0.106000
     28 H6           1.9320    -0.0020     3.3320 ha         1 3D9       0.102000
     29 H7          -0.5320    -0.0120     3.3410 ha         1 3D9       0.101500
     30 H8          -2.8390    -0.0150    -0.6250 h4         1 3D9       0.161000
     31 H9           0.7410    -0.0580    -5.1950 hn         1 3D9       0.293800
     32 H10         -1.9950     1.3620    -7.0180 ha         1 3D9       0.131000
     33 H11         -2.0800     1.5290    -9.4740 h4         1 3D9      -0.019400
     34 H12          1.3140    -0.8410    -9.8680 h4         1 3D9      -0.019400
     35 H13          1.5120    -1.0830    -7.4260 ha         1 3D9       0.131000
@<TRIPOS>BOND
     1     1     2 ar  
     2     1     4 1   
     3     1     9 ar  
     4     2     3 ar  
     5     2    23 1   
     6     3    10 ar  
     7     3    24 1   
     8     4     5 1   
     9     4    15 2   
    10     5     6 2   
    11     5    25 1   
    12     6     7 1   
    13     6    14 1   
    14     7    12 2   
    15     7    16 1   
    16     8    12 1   
    17     8    13 2   
    18     8    26 1   
    19     9    11 ar  
    20     9    27 1   
    21    10    11 ar  
    22    10    28 1   
    23    11    29 1   
    24    13    14 1   
    25    14    15 1   
    26    15    30 1   
    27    16    17 1   
    28    16    31 1   
    29    17    18 ar  
    30    17    22 ar  
    31    18    19 ar  
    32    18    32 1   
    33    19    20 ar  
    34    19    33 1   
    35    20    21 ar  
    36    21    22 ar  
    37    21    34 1   
    38    22    35 1   
@<TRIPOS>SUBSTRUCTURE
     1 3D9         1 TEMP              0 ****  ****    0 ROOT
