@<TRIPOS>MOLECULE
molecule
   27    28     1     0     0
SMALL
bcc


@<TRIPOS>ATOM
      1 C1           0.0000     0.0000     0.0000 ca         1 3DB      -0.017500
      2 C2           1.3820     0.0000     0.0000 ca         1 3DB      -0.154000
      3 C3           2.0730     0.0000     1.1970 ca         1 3DB      -0.067000
      4 C4           1.3810     0.0010     2.3950 ca         1 3DB      -0.154000
      5 C5          -0.0010     0.0030     2.3930 ca         1 3DB      -0.017500
      6 C6          -0.6920     0.0010     1.1970 ca         1 3DB      -0.318500
      7 S1          -2.4540     0.0020     1.1960 sy         1 3DB       1.411200
      8 O1          -2.8550     0.5480     2.4450 o          1 3DB      -0.606300
      9 O2          -2.8550     0.5460    -0.0540 o          1 3DB      -0.606300
     10 N1          -2.9450    -1.5800     1.1970 nu         1 3DB      -0.819800
     11 C7          -2.6660    -2.3920     2.2860 cc         1 3DB       0.708300
     12 S2          -3.1100    -4.0910     2.4590 ss         1 3DB      -0.201800
     13 N2          -2.0240    -2.0390     3.3630 nd         1 3DB      -0.401000
     14 N3          -1.8600    -2.9130     4.2580 nd         1 3DB      -0.204000
     15 C8          -2.3380    -4.0960     4.0460 cc         1 3DB       0.169300
     16 S3          -2.2290    -5.4710     5.1420 sy         1 3DB       1.368800
     17 O3          -3.5570    -5.7550     5.5610 o          1 3DB      -0.614300
     18 O4          -1.3940    -6.4280     4.5050 o          1 3DB      -0.614300
     19 N4          -1.4130    -4.9600     6.4890 n8         1 3DB      -0.986700
     20 H1          -0.5410    -0.0010    -0.9380 ha         1 3DB       0.159000
     21 H2           1.9240    -0.0010    -0.9380 ha         1 3DB       0.139500
     22 H3           3.1560    -0.0010     1.1980 ha         1 3DB       0.135000
     23 H4           1.9220     0.0020     3.3330 ha         1 3DB       0.139500
     24 H5          -0.5430     0.0040     3.3310 ha         1 3DB       0.159000
     25 HN1         -3.4720    -1.9400     0.4260 hn         1 3DB       0.479800
     26 HN4         -0.4180    -5.0570     6.5380 hn         1 3DB       0.458300
     27 HN4A        -1.9180    -4.5870     7.2680 hn         1 3DB       0.458300
@<TRIPOS>BOND
     1     1     2 ar
     2     1     6 ar
     3     2     3 ar
     4     3     4 ar
     5     4     5 ar
     6     5     6 ar
     7     6     7 1
     8     7     8 2
     9     7     9 2
    10     7    10 1
    11    10    11 1
    12    11    12 1
    13    11    13 2
    14    12    15 1
    15    13    14 1
    16    14    15 2
    17    15    16 1
    18    16    17 2
    19    16    18 2
    20    16    19 1
    21     1    20 1
    22     2    21 1
    23     3    22 1
    24     4    23 1
    25     5    24 1
    26    10    25 1
    27    19    26 1
    28    19    27 1
@<TRIPOS>SUBSTRUCTURE
     1 3DB         1 TEMP              0 ****  ****    0 ROOT
