@<TRIPOS>MOLECULE
3DB
   27    28     1     0     0
SMALL
bcc


@<TRIPOS>ATOM
      1 C1           0.0000     0.0000     0.0000 ca         1 3DB       0.012500
      2 C2           1.3820     0.0000     0.0000 ca         1 3DB      -0.134500
      3 C3           2.0730     0.0000     1.1970 ca         1 3DB      -0.038000
      4 C4           1.3810     0.0010     2.3950 ca         1 3DB      -0.134500
      5 C5          -0.0010     0.0030     2.3930 ca         1 3DB       0.012500
      6 C6          -0.6920     0.0010     1.1970 ca         1 3DB      -0.168500
      7 S1          -2.4540     0.0020     1.1960 sy         1 3DB       1.033200
      8 O1          -2.8550     0.5480     2.4450 o          1 3DB      -0.561300
      9 O2          -2.8550     0.5460    -0.0540 o          1 3DB      -0.561300
     10 N1          -2.9450    -1.5800     1.1970 nu         1 3DB      -0.430800
     11 C7          -2.6660    -2.3920     2.2860 cc         1 3DB       0.633300
     12 S2          -3.1100    -4.0910     2.4590 ss         1 3DB      -0.323800
     13 N2          -2.0240    -2.0390     3.3630 nd         1 3DB      -0.386000
     14 N3          -1.8600    -2.9130     4.2580 nd         1 3DB      -0.162000
     15 C8          -2.3380    -4.0960     4.0460 cc         1 3DB       0.327300
     16 S3          -2.2290    -5.4710     5.1420 sy         1 3DB       0.983800
     17 O3          -3.5570    -5.7550     5.5610 o          1 3DB      -0.566800
     18 O4          -1.3940    -6.4280     4.5050 o          1 3DB      -0.566800
     19 N4          -1.4130    -4.9600     6.4890 n8         1 3DB      -0.575700
     20 H1          -0.5410    -0.0010    -0.9380 ha         1 3DB       0.131500
     21 H2           1.9240    -0.0010    -0.9380 ha         1 3DB       0.111000
     22 H3           3.1560    -0.0010     1.1980 ha         1 3DB       0.103000
     23 H4           1.9220     0.0020     3.3330 ha         1 3DB       0.111000
     24 H5          -0.5430     0.0040     3.3310 ha         1 3DB       0.131500
     25 HN1         -3.4720    -1.9400     0.4260 hn         1 3DB       0.356800
     26 HN4         -0.4180    -5.0570     6.5380 hn         1 3DB       0.330800
     27 HN4A        -1.9180    -4.5870     7.2680 hn         1 3DB       0.330800
@<TRIPOS>BOND
     1     1     2 ar  
     2     1     6 ar  
     3     1    20 1   
     4     2     3 ar  
     5     2    21 1   
     6     3     4 ar  
     7     3    22 1   
     8     4     5 ar  
     9     4    23 1   
    10     5     6 ar  
    11     5    24 1   
    12     6     7 1   
    13     7     8 2   
    14     7     9 2   
    15     7    10 1   
    16    10    11 1   
    17    10    25 1   
    18    11    12 1   
    19    11    13 2   
    20    12    15 1   
    21    13    14 1   
    22    14    15 2   
    23    15    16 1   
    24    16    17 2   
    25    16    18 2   
    26    16    19 1   
    27    19    26 1   
    28    19    27 1   
@<TRIPOS>SUBSTRUCTURE
     1 3DB         1 TEMP              0 ****  ****    0 ROOT
