@<TRIPOS>MOLECULE
molecule
   32    35     1     0     0
SMALL
bcc


@<TRIPOS>ATOM
      1 C4           0.0000     0.0000     0.0000 ca         1 3DC       0.433200
      2 C5           1.3790     0.0000     0.0000 ca         1 3DC      -0.262800
      3 C6           2.0560     0.0000     1.2200 ca         1 3DC       0.173600
      4 C11          7.7670     0.1780     0.6200 cc         1 3DC      -0.050200
      5 C8           4.1670     0.6230     0.3270 cd         1 3DC       0.790200
      6 C9           5.5790     0.5320     0.3210 cd         1 3DC      -0.298600
      7 C10          6.4940    -0.1000     1.1410 cc         1 3DC      -0.149000
      8 C12          7.5950     0.9680    -0.4970 cd         1 3DC      -0.105100
      9 N3          -0.6770     0.0060     1.1320 nb         1 3DC      -0.700000
     10 C1           1.3030    -0.0000     2.3930 ca         1 3DC      -0.262800
     11 C2          -0.0730     0.0120     2.3060 ca         1 3DC       0.433200
     12 N7           3.4490    -0.0010     1.2640 nu         1 3DC      -0.722300
     13 N13          6.2780     1.1820    -0.6780 na         1 3DC       0.249200
     14 N14          5.5510     1.8990    -1.6390 nd         1 3DC      -0.584800
     15 C15          4.2490     1.9420    -1.5750 cc         1 3DC       0.695900
     16 N16          3.5620     1.3220    -0.6180 nc         1 3DC      -0.868000
     17 C17          9.0660    -0.2890     1.1750 cd         1 3DC      -0.237100
     18 C18         10.3020    -0.0140     0.6710 cc         1 3DC      -0.109300
     19 N19         11.2100    -0.6210     1.4640 na         1 3DC      -0.042600
     20 N21         10.5220    -1.2900     2.4840 nc         1 3DC      -0.508800
     21 C22          9.2400    -1.0900     2.3200 cd         1 3DC       0.347200
     22 H1          -0.5340    -0.0020    -0.9420 h4         1 3DC       0.026100
     23 H2           1.9290    -0.0020    -0.9340 ha         1 3DC       0.154000
     24 H3           6.2710    -0.6960     2.0170 ha         1 3DC       0.147000
     25 H4           8.3890     1.3530    -1.1250 h4         1 3DC       0.180000
     26 H5           1.7930     0.0020     3.3600 ha         1 3DC       0.154000
     27 H6          -0.6660     0.0140     3.2120 h4         1 3DC       0.026100
     28 H7           3.9270    -0.4990     1.9890 hn         1 3DC       0.464800
     29 H8           3.7070     2.5030    -2.3280 h5         1 3DC       0.075100
     30 H9          10.5170     0.5840    -0.2060 h4         1 3DC       0.172000
     31 H20         12.2030    -0.5990     1.3420 hn         1 3DC       0.331700
     32 H10          8.4500    -1.4790     2.9500 h4         1 3DC       0.049100
@<TRIPOS>BOND
     1    20    21 2   
     2    20    19 1   
     3    21    17 1   
     4    11    10 ar  
     5    11     9 ar  
     6    10     3 ar  
     7    19    18 1   
     8     9     1 ar  
     9    17    18 2   
    10    17     4 1   
    11     7     4 1   
    12     7     6 2   
    13     3    12 1   
    14     3     2 ar  
    15    12     5 1   
    16     4     8 2   
    17     6     5 1   
    18     6    13 1   
    19     1     2 ar  
    20     5    16 2   
    21     8    13 1   
    22    13    14 1   
    23    16    15 1   
    24    15    14 2   
    25     1    22 1   
    26     2    23 1   
    27     7    24 1   
    28     8    25 1   
    29    10    26 1   
    30    11    27 1   
    31    12    28 1   
    32    15    29 1   
    33    18    30 1   
    34    19    31 1   
    35    21    32 1   
@<TRIPOS>SUBSTRUCTURE
     1 3DC         1 TEMP              0 ****  ****    0 ROOT
