@<TRIPOS>MOLECULE
3DC
   32    35     1     0     0
SMALL
bcc


@<TRIPOS>ATOM
      1 C4           0.0000     0.0000     0.0000 ca         1 3DC       0.420200
      2 C5           1.3790     0.0000     0.0000 ca         1 3DC      -0.227800
      3 C6           2.0560     0.0000     1.2200 ca         1 3DC      -0.004400
      4 C11          7.7670     0.1780     0.6200 cc         1 3DC      -0.022200
      5 C8           4.1670     0.6230     0.3270 cd         1 3DC       0.607200
      6 C9           5.5790     0.5320     0.3210 cd         1 3DC      -0.495600
      7 C10          6.4940    -0.1000     1.1410 cc         1 3DC      -0.129000
      8 C12          7.5950     0.9680    -0.4970 cd         1 3DC      -0.307100
      9 N3          -0.6770     0.0060     1.1320 nb         1 3DC      -0.588000
     10 C1           1.3030    -0.0000     2.3930 ca         1 3DC      -0.227800
     11 C2          -0.0730     0.0120     2.3060 ca         1 3DC       0.420200
     12 N7           3.4490    -0.0010     1.2640 nu         1 3DC      -0.209300
     13 N13          6.2780     1.1820    -0.6780 na         1 3DC       0.790200
     14 N14          5.5510     1.8990    -1.6390 nd         1 3DC      -0.757800
     15 C15          4.2490     1.9420    -1.5750 cc         1 3DC       0.748900
     16 N16          3.5620     1.3220    -0.6180 nc         1 3DC      -0.814000
     17 C17          9.0660    -0.2890     1.1750 cc         1 3DC      -0.235100
     18 C18         10.3020    -0.0140     0.6710 cd         1 3DC      -0.263300
     19 N19         11.2100    -0.6210     1.4640 na         1 3DC       0.453400
     20 N21         10.5220    -1.2900     2.4840 nd         1 3DC      -0.664800
     21 C22          9.2400    -1.0900     2.3200 cc         1 3DC       0.404200
     22 H1          -0.5340    -0.0020    -0.9420 h4         1 3DC      -0.018400
     23 H2           1.9290    -0.0020    -0.9340 ha         1 3DC       0.133000
     24 H3           6.2710    -0.6960     2.0170 ha         1 3DC       0.125000
     25 H4           8.3890     1.3530    -1.1250 h4         1 3DC       0.156000
     26 H5           1.7930     0.0020     3.3600 ha         1 3DC       0.133000
     27 H6          -0.6660     0.0140     3.2120 h4         1 3DC      -0.018400
     28 H7           3.9270    -0.4990     1.9890 hn         1 3DC       0.289800
     29 H8           3.7070     2.5030    -2.3280 h5         1 3DC       0.005100
     30 H9          10.5170     0.5840    -0.2060 h4         1 3DC       0.147000
     31 H20         12.2030    -0.5990     1.3420 hn         1 3DC       0.146700
     32 H10          8.4500    -1.4790     2.9500 h4         1 3DC       0.003100
@<TRIPOS>BOND
     1     1     2 ar  
     2     1     9 ar  
     3     1    22 1   
     4     2     3 ar  
     5     2    23 1   
     6     3    10 ar  
     7     3    12 1   
     8     4     7 1   
     9     4     8 2   
    10     4    17 1   
    11     5     6 1   
    12     5    12 1   
    13     5    16 2   
    14     6     7 2   
    15     6    13 1   
    16     7    24 1   
    17     8    13 1   
    18     8    25 1   
    19     9    11 ar  
    20    10    11 ar  
    21    10    26 1   
    22    11    27 1   
    23    12    28 1   
    24    13    14 1   
    25    14    15 2   
    26    15    16 1   
    27    15    29 1   
    28    17    18 2   
    29    17    21 1   
    30    18    19 1   
    31    18    30 1   
    32    19    20 1   
    33    19    31 1   
    34    20    21 2   
    35    21    32 1   
@<TRIPOS>SUBSTRUCTURE
     1 3DC         1 TEMP              0 ****  ****    0 ROOT
