@<TRIPOS>MOLECULE
molecule
   29    30     1     0     0
SMALL
bcc


@<TRIPOS>ATOM
      1 N9           0.0000     0.0000     0.0000 na         1 3DD      -0.131300
      2 C8           1.3630     0.0000     0.0000 cc         1 3DD       0.427700
      3 N7           1.8080     0.0000     1.2220 nd         1 3DD      -0.621100
      4 C5           0.7640     0.0050     2.0870 ca         1 3DD      -0.094900
      5 C6           0.6430    -0.0010     3.4850 ca         1 3DD       0.754200
      6 N6           1.7820    -0.0020     4.2800 nv         1 3DD      -1.007500
      7 N1          -0.5550    -0.0010     4.0450 nb         1 3DD      -0.802000
      8 C2          -1.6680    -0.0010     3.3310 ca         1 3DD       0.459200
      9 C3          -1.6400    -0.0000     1.9650 ca         1 3DD      -0.300300
     10 C4          -0.4090    -0.0010     1.3120 ca         1 3DD      -0.035200
     11 C1'         -0.8690     0.0010    -1.1800 c3         1 3DD       0.028300
     12 C2'         -1.2720     1.4370    -1.5160 c3         1 3DD       0.152100
     13 O2'         -0.1130     2.1800    -1.8990 oh         1 3DD      -0.590800
     14 C3'         -2.2770     1.4290    -2.6700 c3         1 3DD       0.020100
     15 O3'         -3.4360     0.6860    -2.2860 oh         1 3DD      -0.618800
     16 C4'         -2.6730     2.8440    -3.0000 c          1 3DD       0.869600
     17 O4A         -1.7620     3.7020    -3.4840 o          1 3DD      -0.829300
     18 O4B         -3.8130     3.2080    -2.8310 o          1 3DD      -0.829300
     19 H8           1.9840    -0.0010    -0.8880 h5         1 3DD       0.077800
     20 HN61         1.6960    -0.0060     5.2770 hn         1 3DD       0.438300
     21 HN62         2.6880     0.0010     3.8560 hn         1 3DD       0.438300
     22 H2          -2.6240    -0.0010     3.8400 h4         1 3DD       0.015100
     23 H3          -2.5630    -0.0000     1.3960 ha         1 3DD       0.145000
     24 H1'1        -0.3370    -0.4310    -2.0200 h1         1 3DD       0.069700
     25 H1'2        -1.7560    -0.5850    -0.9760 h1         1 3DD       0.069700
     26 H2'         -1.7240     1.8980    -0.6470 h1         1 3DD       0.054700
     27 HO2'        -0.0840     2.9890    -1.4150 ho         1 3DD       0.419000
     28 H3'         -1.8240     0.9680    -3.5400 h1         1 3DD       0.029700
     29 HO3'        -3.8270     0.2970    -3.0510 ho         1 3DD       0.392000
@<TRIPOS>BOND
     1     1     2 1
     2     1    10 1
     3     1    11 1
     4     2     3 2
     5     2    19 1
     6     3     4 1
     7     4     5 ar
     8     4    10 ar
     9     5     6 1
    10     5     7 ar
    11     6    20 1
    12     6    21 1
    13     7     8 ar
    14     8     9 ar
    15     8    22 1
    16     9    10 ar
    17     9    23 1
    18    11    12 1
    19    11    24 1
    20    11    25 1
    21    12    13 1
    22    12    14 1
    23    12    26 1
    24    13    27 1
    25    14    15 1
    26    14    16 1
    27    14    28 1
    28    15    29 1
    29    16    17 1
    30    16    18 1
@<TRIPOS>SUBSTRUCTURE
     1 3DD         1 TEMP              0 ****  ****    0 ROOT
