@<TRIPOS>MOLECULE
molecule
   35    36     1     0     0
SMALL
bcc


@<TRIPOS>ATOM
      1 C14          0.0000     0.0000     0.0000 c          1 3DE       0.676700
      2 O15          1.3760     0.0000     0.0000 os         1 3DE      -0.437900
      3 C16          2.0390     0.0000     1.2680 c3         1 3DE       0.139400
      4 C17          3.5360     0.0000     1.0410 c3         1 3DE      -0.099100
      5 C10         -0.5450    -0.0020    -1.3280 cc         1 3DE      -0.258600
      6 C11          0.1760    -0.0010    -2.5770 cc         1 3DE       0.145400
      7 N13         -0.7120    -0.0020    -3.6320 na         1 3DE      -0.180400
      8 C12          1.6060     0.0020    -2.8880 c3         1 3DE      -0.071800
      9 C8          -1.9140    -0.0030    -1.6310 cd         1 3DE       0.164400
     10 C9          -3.0900    -0.0050    -0.7340 c3         1 3DE      -0.059800
     11 N1          -2.0330    -0.0040    -3.0150 na         1 3DE       0.003500
     12 C2          -3.2200    -0.0060    -3.7260 ca         1 3DE      -0.103200
     13 C3          -3.8210     1.2010    -4.0840 ca         1 3DE      -0.092500
     14 C4          -5.0170     1.1990    -4.8010 ca         1 3DE      -0.114000
     15 C5          -5.6130    -0.0110    -5.1590 ca         1 3DE      -0.068000
     16 C6          -5.0130    -1.2170    -4.8010 ca         1 3DE      -0.114000
     17 C7          -3.8160    -1.2160    -4.0850 ca         1 3DE      -0.092500
     18 O1          -0.6710    -0.0010     1.0540 o          1 3DE      -0.508000
     19 H161         1.7570    -0.8850     1.8250 h1         1 3DE       0.058700
     20 H162         1.7570     0.8850     1.8250 h1         1 3DE       0.058700
     21 H171         3.8170    -0.8840     0.4820 hc         1 3DE       0.055033
     22 H172         4.0460    -0.0000     1.9970 hc         1 3DE       0.055033
     23 H173         3.8170     0.8850     0.4820 hc         1 3DE       0.055033
     24 H13         -0.4970    -0.0020    -4.6090 hn         1 3DE       0.380700
     25 H121         2.0690    -0.8830    -2.4670 hc         1 3DE       0.099367
     26 H122         1.7420     0.0040    -3.9620 hc         1 3DE       0.099367
     27 H123         2.0660     0.8860    -2.4640 hc         1 3DE       0.099367
     28 H91         -3.0950     0.9030    -0.1440 hc         1 3DE       0.102367
     29 H92         -3.9960    -0.0560    -1.3260 hc         1 3DE       0.102367
     30 H93         -3.0400    -0.8630    -0.0750 hc         1 3DE       0.102367
     31 H3          -3.3580     2.1400    -3.8060 ha         1 3DE       0.152000
     32 H4          -5.4840     2.1360    -5.0790 ha         1 3DE       0.166000
     33 H5          -6.5430    -0.0120    -5.7150 ha         1 3DE       0.165000
     34 H6          -5.4770    -2.1560    -5.0790 ha         1 3DE       0.166000
     35 H7          -3.3500    -2.1530    -3.8070 ha         1 3DE       0.152000
@<TRIPOS>BOND
     1     1     2 1   
     2     1     5 1   
     3     1    18 2   
     4     2     3 1   
     5     3     4 1   
     6     3    19 1   
     7     3    20 1   
     8     4    21 1   
     9     4    22 1   
    10     4    23 1   
    11     5     6 1   
    12     5     9 2   
    13     6     7 2   
    14     6     8 1   
    15     7    11 1   
    16     7    24 1   
    17     8    25 1   
    18     8    26 1   
    19     8    27 1   
    20     9    10 1   
    21     9    11 1   
    22    10    28 1   
    23    10    29 1   
    24    10    30 1   
    25    11    12 1   
    26    12    13 ar  
    27    12    17 ar  
    28    13    14 ar  
    29    13    31 1   
    30    14    15 ar  
    31    14    32 1   
    32    15    16 ar  
    33    15    33 1   
    34    16    17 ar  
    35    16    34 1   
    36    17    35 1   
@<TRIPOS>SUBSTRUCTURE
     1 3DE         1 TEMP              0 ****  ****    0 ROOT
