@<TRIPOS>MOLECULE
3DE
   35    36     1     0     0
SMALL
bcc


@<TRIPOS>ATOM
      1 C14         0.0750   -0.0810   -0.0030 c         1 3DE      0.676700
      2 O15         1.4360   -0.0440   -0.0010 os        1 3DE     -0.443900
      3 C16         2.0730   -0.1200    1.3000 c3        1 3DE      0.142400
      4 C17         3.5560   -0.0590    1.0360 c3        1 3DE     -0.107100
      5 C10        -0.5140   -0.0070   -1.3320 cc        1 3DE     -0.250600
      6 C11         0.1590    0.0670   -2.5900 cc        1 3DE      0.127400
      7 N13        -0.8200    0.0990   -3.5690 na        1 3DE     -0.169400
      8 C12         1.6040    0.1170   -2.8600 c3        1 3DE     -0.081800
      9 C8         -1.9210   -0.0110   -1.6140 cd        1 3DE      0.137400
     10 C9         -3.0420   -0.0580   -0.6630 c3        1 3DE     -0.089800
     11 N1         -2.0580    0.0600   -2.9950 na        1 3DE      0.017500
     12 C2         -3.2650    0.0380   -3.7730 ca        1 3DE     -0.094200
     13 C3         -3.7990    1.2460   -4.2610 ca        1 3DE     -0.095500
     14 C4         -4.9840    1.2140   -4.9930 ca        1 3DE     -0.115000
     15 C5         -5.6300    0.0030   -5.2440 ca        1 3DE     -0.072000
     16 C6         -5.0920   -1.1920   -4.7620 ca        1 3DE     -0.115000
     17 C7         -3.9070   -1.1890   -4.0290 ca        1 3DE     -0.095500
     18 O1         -0.5330   -0.1740    1.0660 o         1 3DE     -0.514000
     19 H161        1.7650   -1.0820    1.7860 h1        1 3DE      0.067200
     20 H162        1.7130    0.7430    1.9180 h1        1 3DE      0.067200
     21 H171        3.8320    0.9030    0.5410 hc        1 3DE      0.058033
     22 H172        3.8770   -0.9020    0.3790 hc        1 3DE      0.058033
     23 H173        4.0950   -0.1330    2.0120 hc        1 3DE      0.058033
     24 H13        -0.7240    0.1460   -4.5650 hn        1 3DE      0.368700
     25 H121        1.9910    1.1370   -2.5930 hc        1 3DE      0.105033
     26 H122        2.1240   -0.6250   -2.1940 hc        1 3DE      0.105033
     27 H123        1.8570   -0.1020   -3.9270 hc        1 3DE      0.105033
     28 H91        -3.8760   -0.7040   -1.0360 hc        1 3DE      0.109367
     29 H92        -3.4410    0.9780   -0.4950 hc        1 3DE      0.109367
     30 H93        -2.6720   -0.4540    0.3230 hc        1 3DE      0.109367
     31 H3         -3.3030    2.2110   -4.0680 ha        1 3DE      0.158500
     32 H4         -5.4110    2.1570   -5.3740 ha        1 3DE      0.168000
     33 H5         -6.5680   -0.0110   -5.8240 ha        1 3DE      0.168000
     34 H6         -5.6030   -2.1480   -4.9620 ha        1 3DE      0.168000
     35 H7         -3.4930   -2.1400   -3.6560 ha        1 3DE      0.158500
@<TRIPOS>BOND
     1    1    2 1   
     2    1    5 1   
     3    1   18 2   
     4    2    3 1   
     5    3    4 1   
     6    3   19 1   
     7    3   20 1   
     8    4   21 1   
     9    4   22 1   
    10    4   23 1   
    11    5    6 1   
    12    5    9 2   
    13    6    7 2   
    14    6    8 1   
    15    7   11 1   
    16    7   24 1   
    17    8   25 1   
    18    8   26 1   
    19    8   27 1   
    20    9   10 1   
    21    9   11 1   
    22   10   28 1   
    23   10   29 1   
    24   10   30 1   
    25   11   12 1   
    26   12   13 ar  
    27   12   17 ar  
    28   13   14 ar  
    29   13   31 1   
    30   14   15 ar  
    31   14   32 1   
    32   15   16 ar  
    33   15   33 1   
    34   16   17 ar  
    35   16   34 1   
    36   17   35 1   
@<TRIPOS>SUBSTRUCTURE
     1 3DE         1 TEMP              0 ****  ****    0 ROOT
