@<TRIPOS>MOLECULE
3DG
   33    35     1     0     0
SMALL
bcc


@<TRIPOS>ATOM
      1 N9           0.0000     0.0000     0.0000 na         1 3DG       0.335100
      2 C1'         -0.8660    -0.0010    -1.1810 c3         1 3DG       0.124800
      3 C2'         -1.2550     1.4440    -1.5630 c3         1 3DG       0.150100
      4 C3'         -1.2600     1.4330    -3.1100 c3         1 3DG      -0.087400
      5 C4'         -0.8780    -0.0170    -3.4760 c3         1 3DG       0.181100
      6 O4'         -0.1520    -0.5090    -2.3280 os         1 3DG      -0.377600
      7 C5'          0.0150    -0.0380    -4.7190 c3         1 3DG       0.224400
      8 O5'          0.3200    -1.3910    -5.0650 oh         1 3DG      -0.582800
      9 O2'         -2.5530     1.7700    -1.0610 oh         1 3DG      -0.582800
     10 C8           1.3660     0.0000     0.0000 cc         1 3DG       0.329400
     11 N7           1.8070     0.0000     1.2240 nd         1 3DG      -0.508000
     12 C5           0.7550     0.0000     2.0790 cd         1 3DG       0.282800
     13 C6           0.6330     0.0000     3.4890 c          1 3DG       0.522000
     14 O6           1.6210     0.0010     4.2020 o          1 3DG      -0.565500
     15 N1          -0.6080     0.0060     4.0250 ns         1 3DG      -0.005400
     16 C2          -1.7060    -0.0000     3.2180 cd         1 3DG      -0.031200
     17 N2          -2.9530    -0.0000     3.7910 nz         1 3DG       0.225400
     18 N3          -1.6060    -0.0000     1.9080 nc         1 3DG      -0.327100
     19 C4          -0.4100     0.0000     1.3060 cc         1 3DG      -0.237200
     20 H1'         -1.7550    -0.5920    -1.0020 h2         1 3DG       0.064700
     21 H2'         -0.5140     2.1430    -1.1950 h1         1 3DG       0.020700
     22 H3'1        -2.2470     1.6710    -3.4870 hc         1 3DG       0.048200
     23 H3'2        -0.5220     2.1270    -3.4950 hc         1 3DG       0.048200
     24 H4'         -1.7700    -0.6100    -3.6370 h1         1 3DG       0.040700
     25 H5'1        -0.5030     0.4380    -5.5430 h1         1 3DG       0.001200
     26 H5'2         0.9340     0.4980    -4.5130 h1         1 3DG       0.001200
     27 H5'          0.7120    -1.4150    -5.9220 ho         1 3DG       0.404000
     28 H1          -2.6150     2.7030    -0.9340 ho         1 3DG       0.408000
     29 H8           1.9880     0.0010    -0.8860 h5         1 3DG       0.058100
     30 HN1         -0.7210     0.0140     5.0200 hn         1 3DG       0.188500
     31 HN21        -3.0230    -0.7590     4.4400 hn         1 3DG       0.215467
     32 HN22        -3.1000     0.8650     4.2720 hn         1 3DG       0.215467
     33 H23         -3.6480    -0.1070     3.0780 hn         1 3DG       0.215467
@<TRIPOS>BOND
     1     1     2 1   
     2     1    10 1   
     3     1    19 1   
     4     2     3 1   
     5     2     6 1   
     6     2    20 1   
     7     3     4 1   
     8     3     9 1   
     9     3    21 1   
    10     4     5 1   
    11     4    22 1   
    12     4    23 1   
    13     5     6 1   
    14     5     7 1   
    15     5    24 1   
    16     7     8 1   
    17     7    25 1   
    18     7    26 1   
    19     8    27 1   
    20     9    28 1   
    21    10    11 2   
    22    10    29 1   
    23    11    12 1   
    24    12    13 1   
    25    12    19 2   
    26    13    14 2   
    27    13    15 1   
    28    15    16 1   
    29    15    30 1   
    30    16    17 1   
    31    16    18 2   
    32    17    31 1   
    33    17    32 1   
    34    17    33 1   
    35    18    19 1   
@<TRIPOS>SUBSTRUCTURE
     1 3DG         1 TEMP              0 ****  ****    0 ROOT
