@<TRIPOS>MOLECULE
3DH
   38    40     1     0     0
SMALL
bcc


@<TRIPOS>ATOM
      1 CB           0.0000     0.0000     0.0000 c3         1 3DH       0.026900
      2 CG           1.5300     0.0000     0.0000 c3         1 3DH       0.086700
      3 SD           2.1340     0.0000     1.7110 ss         1 3DH      -0.388200
      4 C5'          3.9380    -0.0010     1.5060 c3         1 3DH       0.070700
      5 C4'          4.6060    -0.0000     2.8820 c3         1 3DH       0.182100
      6 O4'          4.3340    -1.2380     3.5590 os         1 3DH      -0.384600
      7 C3'          6.1350     0.1080     2.7220 c3         1 3DH       0.124100
      8 O3'          6.6240     1.2850     3.3690 oh         1 3DH      -0.546800
      9 C2'          6.6810    -1.1620     3.4200 c3         1 3DH       0.129100
     10 O2'          7.8510    -0.8610     4.1810 oh         1 3DH      -0.534800
     11 C1'          5.5030    -1.5540     4.3460 c3         1 3DH       0.151800
     12 N9           5.5440    -2.9850     4.6570 na         1 3DH       0.209000
     13 C8           4.9410    -3.9810     3.9480 cc         1 3DH       0.247700
     14 N7           5.1850    -5.1340     4.5050 nd         1 3DH      -0.498100
     15 C5           5.9590    -4.9490     5.6010 ca         1 3DH      -0.245200
     16 C4           6.2030    -3.5690     5.7090 ca         1 3DH       0.276800
     17 N3           6.9520    -3.1220     6.7110 nb         1 3DH      -0.672000
     18 C2           7.4620    -3.9570     7.5930 ca         1 3DH       0.689900
     19 N1           7.2610    -5.2610     7.5320 nb         1 3DH      -0.746000
     20 C6           6.5200    -5.7990     6.5680 ca         1 3DH       0.590200
     21 N6           6.3190    -7.1670     6.5120 nv         1 3DH      -0.483500
     22 HB          -0.3610    -0.8960     0.4900 hc         1 3DH       0.013367
     23 HBA         -0.3610     0.8730     0.5310 hc         1 3DH       0.013367
     24 HBB         -0.3610     0.0230    -1.0210 hc         1 3DH       0.013367
     25 HG           1.8920     0.8850    -0.5110 h1         1 3DH       0.029700
     26 HGA          1.8920    -0.8850    -0.5110 h1         1 3DH       0.029700
     27 H5'          4.2390    -0.8850     0.9590 h1         1 3DH       0.038700
     28 H5'A         4.2390     0.8840     0.9580 h1         1 3DH       0.038700
     29 H4'          4.2400     0.8300     3.4750 h1         1 3DH       0.058700
     30 H3'          6.4040     0.1060     1.6730 h1         1 3DH       0.012700
     31 HO3'         6.9990     1.8640     2.7270 ho         1 3DH       0.389000
     32 H2'          6.8750    -1.9430     2.6950 h1         1 3DH       0.021700
     33 HO2'         8.6180    -1.0980     3.6870 ho         1 3DH       0.389000
     34 H1'          5.5200    -0.9610     5.2530 h2         1 3DH       0.075700
     35 H8           4.3460    -3.8360     3.0540 h5         1 3DH       0.040800
     36 H2           8.0720    -3.5600     8.3950 h5         1 3DH      -0.004900
     37 HN6          6.7270    -7.7620     7.2060 hn         1 3DH       0.275800
     38 HN6A         5.7600    -7.5610     5.7810 hn         1 3DH       0.275800
@<TRIPOS>BOND
     1     1     2 1   
     2     1    22 1   
     3     1    23 1   
     4     1    24 1   
     5     2     3 1   
     6     2    25 1   
     7     2    26 1   
     8     3     4 1   
     9     4     5 1   
    10     4    27 1   
    11     4    28 1   
    12     5     6 1   
    13     5     7 1   
    14     5    29 1   
    15     6    11 1   
    16     7     8 1   
    17     7     9 1   
    18     7    30 1   
    19     8    31 1   
    20     9    10 1   
    21     9    11 1   
    22     9    32 1   
    23    10    33 1   
    24    11    12 1   
    25    11    34 1   
    26    12    13 1   
    27    12    16 1   
    28    13    14 2   
    29    13    35 1   
    30    14    15 1   
    31    15    16 ar  
    32    15    20 ar  
    33    16    17 ar  
    34    17    18 ar  
    35    18    19 ar  
    36    18    36 1   
    37    19    20 ar  
    38    20    21 1   
    39    21    37 1   
    40    21    38 1   
@<TRIPOS>SUBSTRUCTURE
     1 3DH         1 TEMP              0 ****  ****    0 ROOT
