@<TRIPOS>MOLECULE
3DJ
   28    28     1     0     0
SMALL
bcc


@<TRIPOS>ATOM
      1 C1           0.0000     0.0000     0.0000 c          1 3DJ       0.649700
      2 C            3.5190    -0.1290     1.4430 c          1 3DJ       0.946600
      3 OXT          4.2060     0.8520     1.6000 o          1 3DJ      -0.814800
      4 CA           2.0170    -0.0060     1.4420 c3         1 3DJ      -0.170500
      5 N            1.6280     1.2460     2.1050 nz         1 3DJ      -0.055600
      6 CB           1.5070     0.0000     0.0000 c3         1 3DJ      -0.122400
      7 O2          -0.6070     0.0000     1.0510 o          1 3DJ      -0.640100
      8 CD2         -0.7330     0.0060    -1.2690 ca         1 3DJ      -0.257600
      9 CE2         -0.0430     0.1270    -2.4830 ca         1 3DJ      -0.042000
     10 CZ          -0.7350     0.1320    -3.6710 ca         1 3DJ      -0.125000
     11 CE1         -2.1180     0.0160    -3.6790 ca         1 3DJ      -0.088000
     12 CD1         -2.8170    -0.1050    -2.4930 ca         1 3DJ       0.064100
     13 O3          -4.1720    -0.2180    -2.5110 oh         1 3DJ      -0.491100
     14 CG          -2.1330    -0.1170    -1.2780 ca         1 3DJ       0.094600
     15 N1          -2.8320    -0.2440    -0.0840 nv         1 3DJ      -0.459200
     16 H2           1.5860    -0.8460     1.9740 hx         1 3DJ       0.098700
     17 H3           1.2060     0.5080     2.6340 hn         1 3DJ       0.254800
     18 H4           2.3760     1.7190     2.5730 hn         1 3DJ       0.254800
     19 H6           1.8680    -0.8810    -0.5160 hc         1 3DJ       0.075200
     20 H7           1.8670     0.8870    -0.5060 hc         1 3DJ       0.075200
     21 H8           1.0370     0.2180    -2.4850 ha         1 3DJ       0.113000
     22 H9          -0.1980     0.2270    -4.6070 ha         1 3DJ       0.113000
     23 H10         -2.6530     0.0210    -4.6210 ha         1 3DJ       0.112000
     24 H11         -4.4160    -1.0080    -2.9640 ho         1 3DJ       0.407000
     25 H12         -3.5880     0.3800     0.1220 hn         1 3DJ       0.284800
     26 H13         -2.5420    -0.9190     0.5960 hn         1 3DJ       0.284800
     27 HN3          0.9650     1.7980     1.5980 hn         1 3DJ       0.254800
     28 O            4.0930    -1.3330     1.2860 o          1 3DJ      -0.814800
@<TRIPOS>BOND
     1     1     6 1   
     2     1     7 2   
     3     1     8 1   
     4     2     3 1   
     5     2     4 1   
     6     2    28 1   
     7     4     5 1   
     8     4     6 1   
     9     4    16 1   
    10     5    17 1   
    11     5    18 1   
    12     5    27 1   
    13     6    19 1   
    14     6    20 1   
    15     8     9 ar  
    16     8    14 ar  
    17     9    10 ar  
    18     9    21 1   
    19    10    11 ar  
    20    10    22 1   
    21    11    12 ar  
    22    11    23 1   
    23    12    13 1   
    24    12    14 ar  
    25    13    24 1   
    26    14    15 1   
    27    15    25 1   
    28    15    26 1   
@<TRIPOS>SUBSTRUCTURE
     1 3DJ         1 TEMP              0 ****  ****    0 ROOT
