@<TRIPOS>MOLECULE
molecule
   28    28     1     0     0
SMALL
bcc


@<TRIPOS>ATOM
      1 C1           0.0000     0.0000     0.0000 c          1 3DJ       0.584700
      2 C            3.5190    -0.1290     1.4430 c          1 3DJ       0.863600
      3 OXT          4.2060     0.8520     1.6000 o          1 3DJ      -0.771800
      4 CA           2.0170    -0.0060     1.4420 c3         1 3DJ      -0.021500
      5 N            1.6280     1.2460     2.1050 nz         1 3DJ      -0.859600
      6 CB           1.5070     0.0000     0.0000 c3         1 3DJ      -0.188400
      7 O2          -0.6070     0.0000     1.0510 o          1 3DJ      -0.595100
      8 CD2         -0.7330     0.0060    -1.2690 ca         1 3DJ      -0.241600
      9 CE2         -0.0430     0.1270    -2.4830 ca         1 3DJ      -0.071000
     10 CZ          -0.7350     0.1320    -3.6710 ca         1 3DJ      -0.154000
     11 CE1         -2.1180     0.0160    -3.6790 ca         1 3DJ      -0.112000
     12 CD1         -2.8170    -0.1050    -2.4930 ca         1 3DJ       0.050100
     13 O3          -4.1720    -0.2180    -2.5110 oh         1 3DJ      -0.511100
     14 CG          -2.1330    -0.1170    -1.2780 ca         1 3DJ       0.241600
     15 N1          -2.8320    -0.2440    -0.0840 nv         1 3DJ      -0.927200
     16 H2           1.5860    -0.8460     1.9740 hx         1 3DJ       0.112700
     17 H3           1.2060     0.5080     2.6340 hn         1 3DJ       0.470467
     18 H4           2.3760     1.7190     2.5730 hn         1 3DJ       0.470467
     19 H6           1.8680    -0.8810    -0.5160 hc         1 3DJ       0.110200
     20 H7           1.8670     0.8870    -0.5060 hc         1 3DJ       0.110200
     21 H8           1.0370     0.2180    -2.4850 ha         1 3DJ       0.141000
     22 H9          -0.1980     0.2270    -4.6070 ha         1 3DJ       0.143000
     23 H10         -2.6530     0.0210    -4.6210 ha         1 3DJ       0.143000
     24 H11         -4.4160    -1.0080    -2.9640 ho         1 3DJ       0.423000
     25 H12         -3.5880     0.3800     0.1220 hn         1 3DJ       0.445300
     26 H13         -2.5420    -0.9190     0.5960 hn         1 3DJ       0.445300
     27 HN3          0.9650     1.7980     1.5980 hn         1 3DJ       0.470467
     28 O            4.0930    -1.3330     1.2860 o          1 3DJ      -0.771800
@<TRIPOS>BOND
     1     5     4 1   
     2     4     2 1   
     3     4     6 1   
     4    28     2 1   
     5     7     1 2   
     6    15    14 1   
     7     2     3 1   
     8     1     6 1   
     9     1     8 1   
    10    14     8 ar  
    11    14    12 ar  
    12    13    12 1   
    13     8     9 ar  
    14    12    11 ar  
    15     9    10 ar  
    16    11    10 ar  
    17     4    16 1   
    18     5    17 1   
    19     5    18 1   
    20     6    19 1   
    21     6    20 1   
    22     9    21 1   
    23    10    22 1   
    24    11    23 1   
    25    13    24 1   
    26    15    25 1   
    27    15    26 1   
    28    27     5 1   
@<TRIPOS>SUBSTRUCTURE
     1 3DJ         1 TEMP              0 ****  ****    0 ROOT
