@<TRIPOS>MOLECULE
molecule
   45    49     1     0     0
SMALL
bcc


@<TRIPOS>ATOM
      1 F29          0.0000     0.0000     0.0000 f          1 3DK      -0.136900
      2 C24          1.3510     0.0000     0.0000 ca         1 3DK       0.113900
      3 C23          2.0440     0.0000     1.1990 ca         1 3DK      -0.127000
      4 C25          2.0440    -0.0060    -1.1980 ca         1 3DK      -0.131000
      5 C26          3.4250    -0.0060    -1.1990 ca         1 3DK      -0.146000
      6 C27          4.1180    -0.0000     0.0000 ca         1 3DK       0.158900
      7 F28          5.4690     0.0000    -0.0000 f          1 3DK      -0.122900
      8 C22          3.4250     0.0010     1.1990 ca         1 3DK      -0.131300
      9 C21          4.1780     0.0060     2.5050 c3         1 3DK       0.131600
     10 N17          4.5220     1.3840     2.8640 na         1 3DK       0.062400
     11 C16          4.2200     1.9980     4.0290 cc         1 3DK      -0.109300
     12 N18          5.2260     2.2920     2.0620 nc         1 3DK      -0.503800
     13 C19          5.3410     3.4190     2.7140 cd         1 3DK       0.346200
     14 C10          4.7150     3.2670     3.9650 cd         1 3DK      -0.238100
     15 C9           4.6120     4.3030     5.0270 cd         1 3DK      -0.055400
     16 C8           3.4920     4.6760     5.6860 cc         1 3DK      -0.092100
     17 N7           3.7940     5.6580     6.5930 na         1 3DK      -0.281100
     18 C4           5.1370     5.9520     6.5440 ca         1 3DK       0.459800
     19 N3           5.8970     6.8120     7.2110 nb         1 3DK      -0.712000
     20 C2           7.1880     6.9160     6.9870 ca         1 3DK       0.447200
     21 C5           5.7110     5.1160     5.5680 ca         1 3DK      -0.201100
     22 C6           7.0780     5.1960     5.3090 ca         1 3DK      -0.047000
     23 C1           7.8270     6.1240     6.0310 ca         1 3DK      -0.144300
     24 C11          9.2870     6.2610     5.7940 cc         1 3DK      -0.253300
     25 C15         10.1300     7.1180     6.4370 cd         1 3DK      -0.105300
     26 N14         11.3660     6.9290     5.9320 na         1 3DK       0.066400
     27 C20         12.5800     7.6440     6.3380 c3         1 3DK       0.063600
     28 N13         11.2910     5.9310     4.9520 nd         1 3DK      -0.510800
     29 C12         10.0520     5.5240     4.8700 cc         1 3DK       0.345200
     30 H1           1.5020     0.0010     2.1370 ha         1 3DK       0.149000
     31 H2           1.5020    -0.0100    -2.1360 ha         1 3DK       0.153000
     32 H3           3.9670    -0.0100    -2.1370 ha         1 3DK       0.155000
     33 H4           5.0850    -0.5770     2.4010 h1         1 3DK       0.071700
     34 H5           3.5580    -0.4260     3.2810 h1         1 3DK       0.071700
     35 H6           3.6800     1.5630     4.8610 h4         1 3DK       0.170000
     36 H7           5.8350     4.3130     2.3540 h4         1 3DK       0.054100
     37 H8           2.5050     4.2610     5.5230 h4         1 3DK       0.171000
     38 H9           3.1330     6.0970     7.2020 hn         1 3DK       0.303700
     39 H10          7.7660     7.6380     7.5500 h4         1 3DK       0.019100
     40 H11          7.5420     4.5670     4.5600 ha         1 3DK       0.142000
     41 H12          9.8400     7.8900     7.1380 h4         1 3DK       0.171000
     42 H13         12.6950     7.5780     7.4130 h1         1 3DK       0.055367
     43 H14         13.4400     7.1980     5.8540 h1         1 3DK       0.055367
     44 H15         12.5010     8.6840     6.0460 h1         1 3DK       0.055367
     45 H16          9.6770     4.7580     4.2010 h4         1 3DK       0.052100
@<TRIPOS>BOND
     1     7     6 1   
     2    17    16 1   
     3    17    18 1   
     4    16    15 2   
     5    11    10 1   
     6    11    14 2   
     7     6     5 ar  
     8     6     8 ar  
     9    18    19 ar  
    10    18    21 ar  
    11     9    10 1   
    12     9     8 1   
    13    15    14 1   
    14    15    21 1   
    15    19    20 ar  
    16     5     4 ar  
    17    10    12 1   
    18     8     3 ar  
    19    14    13 1   
    20    21    22 ar  
    21    20    23 ar  
    22     4     2 ar  
    23     3     2 ar  
    24    22    23 ar  
    25    23    24 1   
    26    12    13 2   
    27     2     1 1   
    28    24    25 2   
    29    24    29 1   
    30    25    26 1   
    31    29    28 2   
    32    26    28 1   
    33    26    27 1   
    34     3    30 1   
    35     4    31 1   
    36     5    32 1   
    37     9    33 1   
    38     9    34 1   
    39    11    35 1   
    40    13    36 1   
    41    16    37 1   
    42    17    38 1   
    43    20    39 1   
    44    22    40 1   
    45    25    41 1   
    46    27    42 1   
    47    27    43 1   
    48    27    44 1   
    49    29    45 1   
@<TRIPOS>SUBSTRUCTURE
     1 3DK         1 TEMP              0 ****  ****    0 ROOT
