@<TRIPOS>MOLECULE
3DK
   45    49     1     0     0
SMALL
bcc


@<TRIPOS>ATOM
      1 F29        -0.1290    0.6010    0.1520 f         1 3DK     -0.136900
      2 C24         1.2090    0.4060    0.0690 ca        1 3DK      0.106900
      3 C23         1.9640    0.2390    1.2430 ca        1 3DK     -0.127000
      4 C25         1.8370    0.3730   -1.1900 ca        1 3DK     -0.128000
      5 C26         3.2070    0.1700   -1.2710 ca        1 3DK     -0.146000
      6 C27         3.9680   -0.0010   -0.0970 ca        1 3DK      0.146900
      7 F28         5.3000   -0.2080   -0.1950 f         1 3DK     -0.120900
      8 C22         3.3400    0.0340    1.1670 ca        1 3DK     -0.131300
      9 C21         4.1420   -0.1600    2.4210 c3        1 3DK      0.107600
     10 N17         4.7210    1.0620    2.9460 na        1 3DK      0.081400
     11 C16         4.1350    1.8390    3.9570 cc        1 3DK     -0.145300
     12 N18         5.8010    1.6650    2.4180 nc        1 3DK     -0.497800
     13 C19         5.9740    2.8250    3.0940 cd        1 3DK      0.309200
     14 C10         4.9320    2.9900    4.0960 cd        1 3DK     -0.179100
     15 C9          4.7630    4.0690    5.0030 cd        1 3DK     -0.034400
     16 C8          3.5530    4.4780    5.5800 cc        1 3DK     -0.102100
     17 N7          3.7520    5.5710    6.4200 na        1 3DK     -0.283100
     18 C4          5.1160    5.8980    6.3990 ca        1 3DK      0.415800
     19 N3          5.7500    6.9020    7.0770 nb        1 3DK     -0.669000
     20 C2          7.0670    6.9720    6.8750 ca        1 3DK      0.416200
     21 C5          5.7880    4.9580    5.5100 ca        1 3DK     -0.177100
     22 C6          7.1670    5.0830    5.3480 ca        1 3DK     -0.044000
     23 C1          7.8290    6.1030    6.0340 ca        1 3DK     -0.130300
     24 C11         9.2450    6.2870    5.9120 cc        1 3DK     -0.201300
     25 C15        10.0150    7.4150    6.2580 cd        1 3DK     -0.136300
     26 N14        11.3440    7.1070    5.9470 na        1 3DK      0.086400
     27 C20        12.4590    7.9970    6.1580 c3        1 3DK      0.040600
     28 N13        11.4620    5.8690    5.4340 nd        1 3DK     -0.507800
     29 C12        10.2160    5.3390    5.3940 cc        1 3DK      0.308200
     30 H1          1.4590    0.2730    2.2210 ha        1 3DK      0.151000
     31 H2          1.2360    0.5090   -2.1020 ha        1 3DK      0.157000
     32 H3          3.7120    0.1440   -2.2480 ha        1 3DK      0.158000
     33 H4          4.9800   -0.8890    2.2080 h1        1 3DK      0.079200
     34 H5          3.4840   -0.5900    3.2290 h1        1 3DK      0.079200
     35 H6          3.2480    1.5170    4.4990 h4        1 3DK      0.172000
     36 H7          6.7930    3.5100    2.8720 h4        1 3DK      0.046100
     37 H8          2.5540    4.0600    5.4420 h4        1 3DK      0.167000
     38 H9          3.0580    6.0520    6.9280 hn        1 3DK      0.309700
     39 H10         7.5810    7.7820    7.4260 h4        1 3DK      0.017100
     40 H11         7.7180    4.3900    4.6940 ha        1 3DK      0.144000
     41 H12         9.7240    8.3760    6.6800 h4        1 3DK      0.176000
     42 H13        13.0100    8.1600    5.1930 h1        1 3DK      0.058033
     43 H14        13.1660    7.5560    6.9100 h1        1 3DK      0.058033
     44 H15        12.0700    8.9770    6.5380 h1        1 3DK      0.058033
     45 H16        10.0280    4.3320    5.0210 h4        1 3DK      0.045100
@<TRIPOS>BOND
     1    1    2 1   
     2    2    3 ar  
     3    2    4 ar  
     4    3    8 ar  
     5    3   30 1   
     6    4    5 ar  
     7    4   31 1   
     8    5    6 ar  
     9    5   32 1   
    10    6    7 1   
    11    6    8 ar  
    12    8    9 1   
    13    9   10 1   
    14    9   33 1   
    15    9   34 1   
    16   10   11 1   
    17   10   12 1   
    18   11   14 2   
    19   11   35 1   
    20   12   13 2   
    21   13   14 1   
    22   13   36 1   
    23   14   15 1   
    24   15   16 2   
    25   15   21 1   
    26   16   17 1   
    27   16   37 1   
    28   17   18 1   
    29   17   38 1   
    30   18   19 ar  
    31   18   21 ar  
    32   19   20 ar  
    33   20   23 ar  
    34   20   39 1   
    35   21   22 ar  
    36   22   23 ar  
    37   22   40 1   
    38   23   24 1   
    39   24   25 2   
    40   24   29 1   
    41   25   26 1   
    42   25   41 1   
    43   26   27 1   
    44   26   28 1   
    45   27   42 1   
    46   27   43 1   
    47   27   44 1   
    48   28   29 2   
    49   29   45 1   
@<TRIPOS>SUBSTRUCTURE
     1 3DK         1 TEMP              0 ****  ****    0 ROOT
