@<TRIPOS>MOLECULE
3DL
   33    35     1     0     0
SMALL
bcc


@<TRIPOS>ATOM
      1 O3         -0.0690   -0.1200    0.0200 o         1 3DL     -0.824300
      2 C17         1.0930    0.3730    0.0150 c         1 3DL      0.905200
      3 O2          1.6270    0.9610    0.9960 o         1 3DL     -0.824300
      4 C1          1.9080    0.2500   -1.2670 ca        1 3DL     -0.097600
      5 C6          1.3660   -0.3840   -2.3910 ca        1 3DL     -0.120000
      6 C5          2.1000   -0.4910   -3.5670 ca        1 3DL     -0.122000
      7 C4          3.3990    0.0380   -3.6390 cp        1 3DL     -0.206500
      8 C3          3.9510    0.6600   -2.5100 ca        1 3DL     -0.122000
      9 C2          3.2050    0.7670   -1.3390 ca        1 3DL     -0.120000
     10 C7          4.1520   -0.0590   -4.8930 cp        1 3DL      0.404500
     11 N2          5.4960   -0.2410   -4.8790 nb        1 3DL     -0.632000
     12 C10         6.1200   -0.3250   -6.0840 cp        1 3DL      0.341500
     13 C9          5.3940   -0.2350   -7.3030 ca        1 3DL      0.256900
     14 N1          4.0580   -0.0460   -7.3270 nb        1 3DL     -0.639000
     15 C8          3.4450    0.0460   -6.1380 ca        1 3DL      0.274900
     16 C11         7.5780   -0.5220   -6.1310 cp        1 3DL     -0.092500
     17 C16         8.3280    0.1370   -7.1140 ca        1 3DL     -0.202000
     18 C15         9.7120   -0.0660   -7.1700 ca        1 3DL      0.112100
     19 O1         10.5100    0.5470   -8.1130 oh        1 3DL     -0.505100
     20 C14        10.3600   -0.9170   -6.2600 ca        1 3DL     -0.155000
     21 C13         9.5990   -1.5570   -5.2870 ca        1 3DL     -0.107000
     22 C12         8.2190   -1.3650   -5.2150 ca        1 3DL     -0.123000
     23 H2          0.3460   -0.7950   -2.3150 ha        1 3DL      0.157000
     24 H3          1.6670   -1.0050   -4.4380 ha        1 3DL      0.117000
     25 H4          4.9710    1.0690   -2.5500 ha        1 3DL      0.117000
     26 H5          3.6200    1.2590   -0.4430 ha        1 3DL      0.157000
     27 H6          5.8980   -0.3250   -8.2780 h4        1 3DL      0.021100
     28 H7          2.3540    0.2170   -6.1480 h4        1 3DL      0.040100
     29 H8          7.8390    0.8180   -7.8250 ha        1 3DL      0.136000
     30 H9          9.9480    1.1350   -8.6380 ho        1 3DL      0.416000
     31 H10        11.4460   -1.0590   -6.3270 ha        1 3DL      0.144000
     32 H11        10.0930   -2.2210   -4.5620 ha        1 3DL      0.134000
     33 H12         7.6340   -1.8710   -4.4310 ha        1 3DL      0.159000
@<TRIPOS>BOND
     1    1    2 1   
     2    2    3 1   
     3    2    4 1   
     4    4    5 ar  
     5    4    9 ar  
     6    5    6 ar  
     7    5   23 1   
     8    6    7 ar  
     9    6   24 1   
    10    7    8 ar  
    11    7   10 1   
    12    8    9 ar  
    13    8   25 1   
    14    9   26 1   
    15   10   11 ar  
    16   10   15 ar  
    17   11   12 ar  
    18   12   13 ar  
    19   12   16 1   
    20   13   14 ar  
    21   13   27 1   
    22   14   15 ar  
    23   15   28 1   
    24   16   17 ar  
    25   16   22 ar  
    26   17   18 ar  
    27   17   29 1   
    28   18   19 1   
    29   18   20 ar  
    30   19   30 1   
    31   20   21 ar  
    32   20   31 1   
    33   21   22 ar  
    34   21   32 1   
    35   22   33 1   
@<TRIPOS>SUBSTRUCTURE
     1 3DL         1 TEMP              0 ****  ****    0 ROOT
