@<TRIPOS>MOLECULE
molecule
   33    35     1     0     0
SMALL
bcc


@<TRIPOS>ATOM
      1 O3           0.0000     0.0000     0.0000 o          1 3DL      -0.830300
      2 C17          1.2150     0.0000     0.0000 c          1 3DL       0.877200
      3 O2           1.8890     0.0000     1.1660 o          1 3DL      -0.830300
      4 C1           1.9530    -0.0070    -1.2790 ca         1 3DL      -0.073600
      5 C6           1.2550    -0.0120    -2.4890 ca         1 3DL      -0.112500
      6 C5           1.9440    -0.0180    -3.6810 ca         1 3DL      -0.121500
      7 C4           3.3390    -0.0190    -3.6810 cp         1 3DL      -0.202500
      8 C3           4.0380    -0.0130    -2.4730 ca         1 3DL      -0.121500
      9 C2           3.3500    -0.0010    -1.2800 ca         1 3DL      -0.112500
     10 C7           4.0810    -0.0260    -4.9650 cp         1 3DL       0.407500
     11 N2           5.4050    -0.1320    -4.9680 nb         1 3DL      -0.662000
     12 C10          6.0630    -0.1370    -6.1210 cp         1 3DL       0.358500
     13 C9           5.3640    -0.0330    -7.3240 ca         1 3DL       0.271900
     14 N1           4.0470     0.0730    -7.3160 nb         1 3DL      -0.656000
     15 C8           3.3870     0.0730    -6.1720 ca         1 3DL       0.285900
     16 C11          7.5420    -0.2550    -6.1310 cp         1 3DL      -0.122500
     17 C16          8.2430    -0.1570    -7.3300 ca         1 3DL      -0.144000
     18 C15          9.6240    -0.2680    -7.3330 ca         1 3DL       0.092100
     19 O1          10.3120    -0.1730    -8.5000 oh         1 3DL      -0.525100
     20 C14         10.3060    -0.4760    -6.1420 ca         1 3DL      -0.153000
     21 C13          9.6100    -0.5740    -4.9500 ca         1 3DL      -0.126000
     22 C12          8.2350    -0.4590    -4.9380 ca         1 3DL      -0.093000
     23 H2           0.1720    -0.0110    -2.4900 ha         1 3DL       0.155500
     24 H3           1.4030    -0.0220    -4.6190 ha         1 3DL       0.118000
     25 H4           5.1210    -0.0110    -2.4740 ha         1 3DL       0.118000
     26 H5           3.8920     0.0030    -0.3420 ha         1 3DL       0.155500
     27 H6           5.9010    -0.0350    -8.2650 h4         1 3DL       0.022100
     28 H7           2.3070     0.1600    -6.1700 h4         1 3DL       0.039100
     29 H8           7.7170     0.0780    -8.2470 ha         1 3DL       0.141000
     30 H9          10.4200    -1.0330    -8.8720 ho         1 3DL       0.414000
     31 H10         11.3860    -0.5640    -6.1450 ha         1 3DL       0.133000
     32 H11         10.1470    -0.7340    -4.0230 ha         1 3DL       0.134000
     33 H12          7.6940    -0.5360    -4.0030 ha         1 3DL       0.164000
@<TRIPOS>BOND
     1     1     2 1
     2     3     2 1
     3     2     4 1
     4     4     5 ar
     5     4     9 ar
     6     5     6 ar
     7     9     8 ar
     8     6     7 ar
     9    21    22 ar
    10    21    20 ar
    11    22    16 ar
    12     8     7 ar
    13     7    10 1
    14    20    18 ar
    15    11    10 ar
    16    11    12 ar
    17    10    15 ar
    18    16    12 1
    19    16    17 ar
    20    12    13 ar
    21    18    17 ar
    22    18    19 1
    23    15    14 ar
    24    13    14 ar
    25     5    23 1
    26     6    24 1
    27     8    25 1
    28     9    26 1
    29    13    27 1
    30    15    28 1
    31    17    29 1
    32    19    30 1
    33    20    31 1
    34    21    32 1
    35    22    33 1
@<TRIPOS>SUBSTRUCTURE
     1 3DL         1 TEMP              0 ****  ****    0 ROOT
