@<TRIPOS>MOLECULE
3DM
   21    21     1     0     0
SMALL
bcc


@<TRIPOS>ATOM
      1 O1          0.0700    0.1170   -0.1220 oh        1 3DM     -0.475100
      2 C1          1.4410    0.0780   -0.0450 ca        1 3DM      0.083100
      3 C2          2.1500    0.0980    1.1730 ca        1 3DM      0.094100
      4 O2          1.3480    0.1620    2.3010 os        1 3DM     -0.324900
      5 C7          2.0260    0.1070    3.5510 c3        1 3DM      0.116700
      6 C3          3.5480    0.0590    1.1880 ca        1 3DM     -0.198000
      7 C4          4.2410    0.0020   -0.0180 ca        1 3DM     -0.100000
      8 C5          3.5640   -0.0180   -1.2360 ca        1 3DM     -0.198000
      9 C6          2.1660    0.0200   -1.2580 ca        1 3DM      0.094100
     10 O3          1.3950    0.0040   -2.4020 os        1 3DM     -0.324900
     11 C8          2.1080   -0.0480   -3.6320 c3        1 3DM      0.116700
     12 HO1        -0.2760    0.1320    0.7840 ho        1 3DM      0.431000
     13 H7          2.6070   -0.8420    3.6430 h1        1 3DM      0.045033
     14 H7A         1.1930    0.1360    4.2990 h1        1 3DM      0.045033
     15 H7B         2.6960    0.9920    3.6720 h1        1 3DM      0.045033
     16 H3          4.0990    0.0740    2.1370 ha        1 3DM      0.139500
     17 H4          5.3410   -0.0280   -0.0100 ha        1 3DM      0.134000
     18 H5          4.1350   -0.0630   -2.1740 ha        1 3DM      0.139500
     19 H8          2.7610    0.8510   -3.7510 h1        1 3DM      0.045033
     20 H8A         2.7140   -0.9840   -3.7000 h1        1 3DM      0.045033
     21 H8B         1.2940   -0.0490   -4.4010 h1        1 3DM      0.045033
@<TRIPOS>BOND
     1    1    2 1   
     2    1   12 1   
     3    2    3 ar  
     4    2    9 ar  
     5    3    4 1   
     6    3    6 ar  
     7    4    5 1   
     8    5   13 1   
     9    5   14 1   
    10    5   15 1   
    11    6    7 ar  
    12    6   16 1   
    13    7    8 ar  
    14    7   17 1   
    15    8    9 ar  
    16    8   18 1   
    17    9   10 1   
    18   10   11 1   
    19   11   19 1   
    20   11   20 1   
    21   11   21 1   
@<TRIPOS>SUBSTRUCTURE
     1 3DM         1 TEMP              0 ****  ****    0 ROOT
