@<TRIPOS>MOLECULE
molecule
   21    21     1     0     0
SMALL
bcc


@<TRIPOS>ATOM
      1 O1           0.0000     0.0000     0.0000 oh         1 3DM      -0.491100
      2 C1           1.3610     0.0000     0.0000 ca         1 3DM       0.043100
      3 C2           2.0580     0.0000     1.2020 ca         1 3DM       0.152100
      4 O2           1.3810    -0.0010     2.3820 os         1 3DM      -0.313900
      5 C7           2.1620    -0.0010     3.5790 c3         1 3DM       0.127700
      6 C3           3.4440    -0.0010     1.1980 ca         1 3DM      -0.249500
      7 C4           4.1340    -0.0000     0.0000 ca         1 3DM      -0.060000
      8 C5           3.4450     0.0010    -1.1980 ca         1 3DM      -0.249500
      9 C6           2.0580    -0.0060    -1.2020 ca         1 3DM       0.152100
     10 O3           1.3810    -0.0100    -2.3820 os         1 3DM      -0.313900
     11 C8           2.1620    -0.0160    -3.5790 c3         1 3DM       0.127700
     12 HO1         -0.3140     0.8890    -0.0020 ho         1 3DM       0.412000
     13 H7           1.5040    -0.0010     4.4400 h1         1 3DM       0.042367
     14 H7A          2.7870    -0.8860     3.6020 h1         1 3DM       0.042367
     15 H7B          2.7870     0.8830     3.6030 h1         1 3DM       0.042367
     16 H3           3.9880    -0.0010     2.1350 ha         1 3DM       0.138000
     17 H4           5.2180     0.0020     0.0000 ha         1 3DM       0.132000
     18 H5           3.9890    -0.0010    -2.1350 ha         1 3DM       0.138000
     19 H8           2.7890    -0.8990    -3.5970 h1         1 3DM       0.042367
     20 H8A          1.5040    -0.0230    -4.4390 h1         1 3DM       0.042367
     21 H8B          2.7850     0.8700    -3.6080 h1         1 3DM       0.042367
@<TRIPOS>BOND
     1     2     1 1   
     2     1    12 1   
     3     3     2 ar  
     4     2     9 ar  
     5     4     3 1   
     6     6     3 ar  
     7     5     4 1   
     8     5    13 1   
     9     5    14 1   
    10     5    15 1   
    11     6     7 ar  
    12     6    16 1   
    13     7     8 ar  
    14     7    17 1   
    15     8     9 ar  
    16     8    18 1   
    17     9    10 1   
    18    10    11 1   
    19    11    19 1   
    20    11    20 1   
    21    11    21 1   
@<TRIPOS>SUBSTRUCTURE
     1 3DM         1 TEMP              0 ****  ****    0 ROOT
