@<TRIPOS>MOLECULE
3DN
   57    60     1     0     0
SMALL
bcc


@<TRIPOS>ATOM
      1 N1           0.0000     0.0000     0.0000 n3         1 3DN      -0.536600
      2 C1          -8.0970     2.5850    -1.0150 ca         1 3DN       0.004200
      3 C2          -8.9710     1.4730    -1.0420 ca         1 3DN      -0.163600
      4 C3          -8.3920     0.1280    -1.1260 c          1 3DN       0.614100
      5 C4          -6.2030     1.0640    -1.1480 cc         1 3DN      -0.056600
      6 C5          -6.6570     2.3410    -1.0710 cd         1 3DN      -0.173200
      7 C6          -4.2490    -0.4760    -1.2830 ca         1 3DN      -0.094500
      8 C7          -2.4970     1.6750    -1.2330 ca         1 3DN      -0.083000
      9 C8          -0.5260     0.1400    -1.3640 c3         1 3DN       0.209100
     10 C9          -0.0780    -1.2430     2.1100 c3         1 3DN      -0.051900
     11 C10          1.4690     0.0000     0.0000 c3         1 3DN       0.151300
     12 C11          1.2740    -0.1000     4.2940 c3         1 3DN       0.172600
     13 C12          1.6090    -2.4970     4.2300 c3         1 3DN       0.172600
     14 C13        -10.3500     1.6800    -0.9890 ca         1 3DN      -0.029000
     15 N2          -7.0530    -0.0140    -1.1740 ns         1 3DN       0.029900
     16 C14         -8.6210     3.8770    -0.9290 ca         1 3DN      -0.099300
     17 C15         -7.7010     5.0680    -0.8870 c3         1 3DN       0.064200
     18 C16         -9.9760     4.0540    -0.8730 ca         1 3DN      -0.070000
     19 C17        -10.8390     2.9640    -0.9120 ca         1 3DN      -0.124000
     20 C18         -4.7440     0.8270    -1.2040 ca         1 3DN      -0.062800
     21 C19         -3.8570     1.9040    -1.1790 ca         1 3DN      -0.094500
     22 C20         -2.0130     0.3820    -1.3060 ca         1 3DN      -0.080300
     23 C21         -2.8870    -0.6910    -1.3310 ca         1 3DN      -0.083000
     24 C22          1.9810     0.0000     1.4420 c3         1 3DN      -0.051900
     25 C23          1.4520    -1.2420     2.1660 c3         1 3DN       0.126500
     26 N3           1.8930    -1.2170     3.5670 n3         1 3DN      -0.539600
     27 C24         -0.5300    -1.2060     0.6480 c3         1 3DN       0.151300
     28 H2          -5.9600     3.1700    -1.0530 ha         1 3DN       0.136000
     29 H4          -4.9320    -1.3160    -1.3030 ha         1 3DN       0.111500
     30 H5          -1.8080     2.5100    -1.2140 ha         1 3DN       0.111000
     31 H6          -0.0430     0.9770    -1.8530 h1         1 3DN       0.013700
     32 H7          -0.3290    -0.7670    -1.9220 h1         1 3DN       0.013700
     33 H8          -0.4560    -2.1420     2.5810 hc         1 3DN       0.031200
     34 H9          -0.4590    -0.3700     2.6270 hc         1 3DN       0.031200
     35 H10          1.8280     0.8860    -0.5090 h1         1 3DN       0.011700
     36 H11          1.8280    -0.8860    -0.5090 h1         1 3DN       0.011700
     37 H12          1.3420     0.8010     3.6960 h1         1 3DN       0.004700
     38 H13          1.7910     0.0500     5.2340 h1         1 3DN       0.004700
     39 H14          0.2320    -0.3280     4.4860 h1         1 3DN       0.004700
     40 H15          1.8830    -3.3130     3.5720 h1         1 3DN       0.004700
     41 H16          0.5520    -2.5580     4.4600 h1         1 3DN       0.004700
     42 H17          2.1820    -2.5650     5.1460 h1         1 3DN       0.004700
     43 H18        -11.0300     0.8370    -1.0190 ha         1 3DN       0.125000
     44 H19         -7.1010     5.0940    -1.7890 hc         1 3DN       0.008700
     45 H20         -8.2880     5.9760    -0.8170 hc         1 3DN       0.008700
     46 H21         -7.0500     4.9920    -0.0240 hc         1 3DN       0.008700
     47 H22        -10.3830     5.0560    -0.8120 ha         1 3DN       0.104000
     48 H23        -11.9090     3.1280    -0.8660 ha         1 3DN       0.106000
     49 H24         -4.2350     2.9180    -1.1220 ha         1 3DN       0.111500
     50 H25         -2.5010    -1.7010    -1.3900 ha         1 3DN       0.111000
     51 H26          1.6300     0.8900     1.9490 hc         1 3DN       0.031200
     52 H27          3.0640    -0.0180     1.4400 hc         1 3DN       0.031200
     53 H28          1.8310    -2.1320     1.6780 h1         1 3DN       0.035700
     54 H30         -0.1580    -2.0840     0.1350 h1         1 3DN       0.011700
     55 H31         -1.6130    -1.1890     0.6070 h1         1 3DN       0.011700
     56 H1          -6.6660    -0.9350    -1.2310 hn         1 3DN       0.178500
     57 O1          -9.1150    -0.8510    -1.1520 o          1 3DN      -0.686500
@<TRIPOS>BOND
     1     1     9 1   
     2     1    11 1   
     3     1    27 1   
     4     2     3 ar  
     5     2     6 1   
     6     2    16 ar  
     7     3     4 1   
     8     3    14 ar  
     9     4    15 1   
    10     4    57 2   
    11     5     6 2   
    12     5    15 1   
    13     5    20 1   
    14     6    28 1   
    15     7    20 ar  
    16     7    23 ar  
    17     7    29 1   
    18     8    21 ar  
    19     8    22 ar  
    20     8    30 1   
    21     9    22 1   
    22     9    31 1   
    23     9    32 1   
    24    10    25 1   
    25    10    27 1   
    26    10    33 1   
    27    10    34 1   
    28    11    24 1   
    29    11    35 1   
    30    11    36 1   
    31    12    26 1   
    32    12    37 1   
    33    12    38 1   
    34    12    39 1   
    35    13    26 1   
    36    13    40 1   
    37    13    41 1   
    38    13    42 1   
    39    14    19 ar  
    40    14    43 1   
    41    15    56 1   
    42    16    17 1   
    43    16    18 ar  
    44    17    44 1   
    45    17    45 1   
    46    17    46 1   
    47    18    19 ar  
    48    18    47 1   
    49    19    48 1   
    50    20    21 ar  
    51    21    49 1   
    52    22    23 ar  
    53    23    50 1   
    54    24    25 1   
    55    24    51 1   
    56    24    52 1   
    57    25    26 1   
    58    25    53 1   
    59    27    54 1   
    60    27    55 1   
@<TRIPOS>SUBSTRUCTURE
     1 3DN         1 TEMP              0 ****  ****    0 ROOT
