@<TRIPOS>MOLECULE
molecule
   57    60     1     0     0
SMALL
bcc


@<TRIPOS>ATOM
      1 N1           0.0000     0.0000     0.0000 n3         1 3DN      -0.726600
      2 C1          -8.0970     2.5850    -1.0150 ca         1 3DN       0.002200
      3 C2          -8.9710     1.4730    -1.0420 ca         1 3DN      -0.155600
      4 C3          -8.3920     0.1280    -1.1260 c          1 3DN       0.711100
      5 C4          -6.2030     1.0640    -1.1480 cc         1 3DN       0.101400
      6 C5          -6.6570     2.3410    -1.0710 cd         1 3DN      -0.195200
      7 C6          -4.2490    -0.4760    -1.2830 ca         1 3DN      -0.114000
      8 C7          -2.4970     1.6750    -1.2330 ca         1 3DN      -0.113000
      9 C8          -0.5260     0.1400    -1.3640 c3         1 3DN       0.206100
     10 C9          -0.0780    -1.2430     2.1100 c3         1 3DN      -0.094400
     11 C10          1.4690     0.0000     0.0000 c3         1 3DN       0.161800
     12 C11          1.2740    -0.1000     4.2940 c3         1 3DN       0.147600
     13 C12          1.6090    -2.4970     4.2300 c3         1 3DN       0.147600
     14 C13        -10.3500     1.6800    -0.9890 ca         1 3DN      -0.061000
     15 N2          -7.0530    -0.0140    -1.1740 ns         1 3DN      -0.436100
     16 C14         -8.6210     3.8770    -0.9290 ca         1 3DN      -0.092300
     17 C15         -7.7010     5.0680    -0.8870 c3         1 3DN      -0.045800
     18 C16         -9.9760     4.0540    -0.8730 ca         1 3DN      -0.096000
     19 C17        -10.8390     2.9640    -0.9120 ca         1 3DN      -0.149000
     20 C18         -4.7440     0.8270    -1.2040 ca         1 3DN      -0.068800
     21 C19         -3.8570     1.9040    -1.1790 ca         1 3DN      -0.114000
     22 C20         -2.0130     0.3820    -1.3060 ca         1 3DN      -0.068300
     23 C21         -2.8870    -0.6910    -1.3310 ca         1 3DN      -0.113000
     24 C22          1.9810     0.0000     1.4420 c3         1 3DN      -0.094400
     25 C23          1.4520    -1.2420     2.1660 c3         1 3DN       0.166500
     26 N3           1.8930    -1.2170     3.5670 n3         1 3DN      -0.724600
     27 C24         -0.5300    -1.2060     0.6480 c3         1 3DN       0.161800
     28 H2          -5.9600     3.1700    -1.0530 ha         1 3DN       0.153000
     29 H4          -4.9320    -1.3160    -1.3030 ha         1 3DN       0.133500
     30 H5          -1.8080     2.5100    -1.2140 ha         1 3DN       0.138000
     31 H6          -0.0430     0.9770    -1.8530 h1         1 3DN       0.041700
     32 H7          -0.3290    -0.7670    -1.9220 h1         1 3DN       0.041700
     33 H8          -0.4560    -2.1420     2.5810 hc         1 3DN       0.055950
     34 H9          -0.4590    -0.3700     2.6270 hc         1 3DN       0.055950
     35 H10          1.8280     0.8860    -0.5090 h1         1 3DN       0.035200
     36 H11          1.8280    -0.8860    -0.5090 h1         1 3DN       0.035200
     37 H12          1.3420     0.8010     3.6960 h1         1 3DN       0.033533
     38 H13          1.7910     0.0500     5.2340 h1         1 3DN       0.033533
     39 H14          0.2320    -0.3280     4.4860 h1         1 3DN       0.033533
     40 H15          1.8830    -3.3130     3.5720 h1         1 3DN       0.033533
     41 H16          0.5520    -2.5580     4.4600 h1         1 3DN       0.033533
     42 H17          2.1820    -2.5650     5.1460 h1         1 3DN       0.033533
     43 H18        -11.0300     0.8370    -1.0190 ha         1 3DN       0.155000
     44 H19         -7.1010     5.0940    -1.7890 hc         1 3DN       0.043700
     45 H20         -8.2880     5.9760    -0.8170 hc         1 3DN       0.043700
     46 H21         -7.0500     4.9920    -0.0240 hc         1 3DN       0.043700
     47 H22        -10.3830     5.0560    -0.8120 ha         1 3DN       0.131000
     48 H23        -11.9090     3.1280    -0.8660 ha         1 3DN       0.134000
     49 H24         -4.2350     2.9180    -1.1220 ha         1 3DN       0.133500
     50 H25         -2.5010    -1.7010    -1.3900 ha         1 3DN       0.138000
     51 H26          1.6300     0.8900     1.9490 hc         1 3DN       0.055950
     52 H27          3.0640    -0.0180     1.4400 hc         1 3DN       0.055950
     53 H28          1.8310    -2.1320     1.6780 h1         1 3DN       0.059700
     54 H30         -0.1580    -2.0840     0.1350 h1         1 3DN       0.035200
     55 H31         -1.6130    -1.1890     0.6070 h1         1 3DN       0.035200
     56 H1          -6.6660    -0.9350    -1.2310 hn         1 3DN       0.335500
     57 O1          -9.1150    -0.8510    -1.1520 o          1 3DN      -0.641500
@<TRIPOS>BOND
     1    13    26 1   
     2    17    16 1   
     3    26    25 1   
     4    26    12 1   
     5    25    24 1   
     6    25    10 1   
     7    11    24 1   
     8    11     1 1   
     9     8    21 ar  
    10     8    22 ar  
    11    16    18 ar  
    12    16     2 ar  
    13    21    20 ar  
    14    18    19 ar  
    15    27    10 1   
    16    27     1 1   
    17     6     2 1   
    18     6     5 2   
    19     9     1 1   
    20     9    22 1   
    21     2     3 ar  
    22    22    23 ar  
    23    20     5 1   
    24    20     7 ar  
    25    19    14 ar  
    26     5    15 1   
    27     3    14 ar  
    28     3     4 1   
    29    23     7 ar  
    30    15     4 1   
    31     4    57 2   
    32     6    28 1   
    33     7    29 1   
    34     8    30 1   
    35     9    31 1   
    36     9    32 1   
    37    10    33 1   
    38    10    34 1   
    39    11    35 1   
    40    11    36 1   
    41    12    37 1   
    42    12    38 1   
    43    12    39 1   
    44    13    40 1   
    45    13    41 1   
    46    13    42 1   
    47    14    43 1   
    48    17    44 1   
    49    17    45 1   
    50    17    46 1   
    51    18    47 1   
    52    19    48 1   
    53    21    49 1   
    54    23    50 1   
    55    24    51 1   
    56    24    52 1   
    57    25    53 1   
    58    27    54 1   
    59    27    55 1   
    60    15    56 1   
@<TRIPOS>SUBSTRUCTURE
     1 3DN         1 TEMP              0 ****  ****    0 ROOT
