@<TRIPOS>MOLECULE
molecule
   47    46     1     0     0
SMALL
bcc


@<TRIPOS>ATOM
      1 CAA          0.0000     0.0000     0.0000 c3         1 3DP      -0.092100
      2 CAG          1.5300     0.0000     0.0000 c3         1 3DP      -0.083400
      3 CAH          2.0390     0.0000     1.4430 c3         1 3DP      -0.081400
      4 CAI          3.5690    -0.0000     1.4450 c3         1 3DP      -0.081400
      5 CAJ          4.0780    -0.0000     2.8870 c3         1 3DP      -0.080400
      6 CAK          5.6080    -0.0000     2.8880 c3         1 3DP      -0.077400
      7 CAL          6.1170    -0.0000     4.3300 c3         1 3DP      -0.112400
      8 CAN          7.6470    -0.0000     4.3320 c3         1 3DP       0.102800
      9 NAQ          8.1360    -0.0010     5.7170 n4         1 3DP      -0.574800
     10 CAB          7.6460     1.1990     6.4090 c3         1 3DP       0.089100
     11 CAC          7.6460    -1.2000     6.4090 c3         1 3DP       0.089100
     12 CAO          9.6060    -0.0000     5.7180 c3         1 3DP       0.100800
     13 CAM         10.1140    -0.0000     7.1600 c3         1 3DP      -0.070400
     14 CAP         11.6440    -0.0000     7.1620 c3         1 3DP      -0.254600
     15 SAR         12.2480    -0.0010     8.8720 s6         1 3DP       1.235800
     16 OAF         11.7600    -1.1900     9.5540 o          1 3DP      -0.683200
     17 OAE         13.7030    -0.0010     8.8690 o          1 3DP      -0.683200
     18 OAD         11.7610     1.1880     9.5540 o          1 3DP      -0.683200
     19 HAA1        -0.3610    -0.0000    -1.0210 hc         1 3DP       0.035700
     20 HAA2        -0.3610    -0.8840     0.5110 hc         1 3DP       0.035700
     21 HAA3        -0.3610     0.8850     0.5110 hc         1 3DP       0.035700
     22 HAG1         1.8910     0.8850    -0.5110 hc         1 3DP       0.041700
     23 HAG2         1.8910    -0.8850    -0.5110 hc         1 3DP       0.041700
     24 HAH1         1.6780     0.8840     1.9540 hc         1 3DP       0.043700
     25 HAH2         1.6780    -0.8840     1.9540 hc         1 3DP       0.043700
     26 HAI1         3.9310    -0.8840     0.9340 hc         1 3DP       0.044700
     27 HAI2         3.9310     0.8840     0.9340 hc         1 3DP       0.044700
     28 HAJ1         3.7170     0.8840     3.3970 hc         1 3DP       0.046700
     29 HAJ2         3.7170    -0.8840     3.3970 hc         1 3DP       0.046700
     30 HAK1         5.9700     0.8840     2.3780 hc         1 3DP       0.052700
     31 HAK2         5.9700    -0.8840     2.3780 hc         1 3DP       0.052700
     32 HAL1         5.7560     0.8840     4.8410 hc         1 3DP       0.060700
     33 HAL2         5.7560    -0.8840     4.8410 hc         1 3DP       0.060700
     34 HAN1         8.0090     0.8850     3.8220 hx         1 3DP       0.095200
     35 HAN2         8.0090    -0.8840     3.8210 hx         1 3DP       0.095200
     36 HAB1         8.0830     2.0810     5.9560 hx         1 3DP       0.097367
     37 HAB2         7.9270     1.1540     7.4540 hx         1 3DP       0.097367
     38 HAB3         6.5670     1.2480     6.3270 hx         1 3DP       0.097367
     39 HAC1         6.5620    -1.2080     6.3950 hx         1 3DP       0.097367
     40 HAC2         7.9940    -1.1920     7.4350 hx         1 3DP       0.097367
     41 HAC3         8.0190    -2.0840     5.9070 hx         1 3DP       0.097367
     42 HAO1         9.9670    -0.8840     5.2070 hx         1 3DP       0.092700
     43 HAO2         9.9670     0.8850     5.2070 hx         1 3DP       0.092700
     44 HAM1         9.7520    -0.8850     7.6710 hc         1 3DP       0.068700
     45 HAM2         9.7520     0.8840     7.6710 hc         1 3DP       0.068700
     46 HAP1        12.0060     0.8850     6.6520 h1         1 3DP       0.076700
     47 HAP2        12.0060    -0.8840     6.6510 h1         1 3DP       0.076700
@<TRIPOS>BOND
     1     1     2 1
     2     1    19 1
     3     1    20 1
     4     1    21 1
     5     2     3 1
     6     2    22 1
     7     2    23 1
     8     3     4 1
     9     3    24 1
    10     3    25 1
    11     4     5 1
    12     4    26 1
    13     4    27 1
    14     5     6 1
    15     5    28 1
    16     5    29 1
    17     6     7 1
    18     6    30 1
    19     6    31 1
    20     7     8 1
    21     7    32 1
    22     7    33 1
    23     8     9 1
    24     8    34 1
    25     8    35 1
    26     9    10 1
    27     9    11 1
    28     9    12 1
    29    10    36 1
    30    10    37 1
    31    10    38 1
    32    11    39 1
    33    11    40 1
    34    11    41 1
    35    12    13 1
    36    12    42 1
    37    12    43 1
    38    13    14 1
    39    13    44 1
    40    13    45 1
    41    14    15 1
    42    14    46 1
    43    14    47 1
    44    15    16 1
    45    15    17 1
    46    15    18 1
@<TRIPOS>SUBSTRUCTURE
     1 3DP         1 TEMP              0 ****  ****    0 ROOT
