@<TRIPOS>MOLECULE
molecule
   39    40     1     0     0
SMALL
bcc


@<TRIPOS>ATOM
      1 CAA          0.0000     0.0000     0.0000 c3         1 3DQ       0.131700
      2 OAN          1.4290     0.0000     0.0000 os         1 3DQ      -0.338900
      3 CAR          2.0450     0.0000     1.2110 ca         1 3DQ       0.120100
      4 CAK          3.4310    -0.0000     1.2840 ca         1 3DQ      -0.189000
      5 CAI          4.0560    -0.0000     2.5170 ca         1 3DQ      -0.085500
      6 CAJ          1.2920     0.0060     2.3750 ca         1 3DQ      -0.189000
      7 CAH          1.9210     0.0060     3.6050 ca         1 3DQ      -0.085500
      8 CAQ          3.3020     0.0000     3.6750 ca         1 3DQ      -0.104300
      9 CAL          3.9870    -0.0000     5.0190 c3         1 3DQ      -0.030100
     10 CAU          4.2180     1.4430     5.4730 c3         1 3DQ      -0.137700
     11 CAP          5.2020     2.1160     4.5420 c          1 3DQ       0.571100
     12 OAC          4.8490     3.0060     3.8070 o          1 3DQ      -0.516100
     13 CAT          6.6390     1.6450     4.5560 c3         1 3DQ       0.041100
     14 OAF          7.4430     2.5320     3.7740 oh         1 3DQ      -0.589800
     15 CAS          7.1380     1.6430     6.0050 c3         1 3DQ       0.137100
     16 OAE          8.4510     1.0830     6.0560 oh         1 3DQ      -0.621800
     17 CAM          6.1930     0.8060     6.8670 c3         1 3DQ      -0.096400
     18 CAV          4.8040     1.4480     6.8890 c3         1 3DQ       0.054800
     19 CAO          3.9030     0.6660     7.8090 c          1 3DQ       0.865600
     20 OAB          4.1390    -0.4960     8.0430 o          1 3DQ      -0.827300
     21 OAD          2.8380     1.2590     8.3700 o          1 3DQ      -0.827300
     22 OAG          4.9100     2.7950     7.3560 oh         1 3DQ      -0.623800
     23 HAA1        -0.3610    -0.0050    -1.0210 h1         1 3DQ       0.035367
     24 HAA2        -0.3610     0.8870     0.5070 h1         1 3DQ       0.035367
     25 HAA3        -0.3610    -0.8820     0.5150 h1         1 3DQ       0.035367
     26 HAK          4.0220    -0.0010     0.3770 ha         1 3DQ       0.128500
     27 HAJ          0.2100     0.0110     2.3210 ha         1 3DQ       0.128500
     28 HAI          5.1380    -0.0030     2.5750 ha         1 3DQ       0.137500
     29 HAH          1.3320     0.0090     4.5140 ha         1 3DQ       0.137500
     30 HAL1         4.9380    -0.5110     4.9390 hc         1 3DQ       0.074200
     31 HAL2         3.3620    -0.5110     5.7420 hc         1 3DQ       0.074200
     32 HAU          3.2810     1.9870     5.4660 hc         1 3DQ       0.101700
     33 HAT          6.6960     0.6420     4.1520 h1         1 3DQ       0.053700
     34 HAF          7.8470     2.0520     3.0700 ho         1 3DQ       0.393000
     35 HAS          7.1590     2.6600     6.3800 h1         1 3DQ       0.063700
     36 HAE          9.0120     1.6420     6.5680 ho         1 3DQ       0.396000
     37 HAM1         6.5800     0.7530     7.8770 hc         1 3DQ       0.063200
     38 HAM2         6.1190    -0.1920     6.4520 hc         1 3DQ       0.063200
     39 HAG          4.6460     2.8360     8.2600 ho         1 3DQ       0.423000
@<TRIPOS>BOND
     1     1     2 1   
     2     2     3 1   
     3     3     4 ar  
     4     3     6 ar  
     5     4     5 ar  
     6     5     8 ar  
     7     6     7 ar  
     8     7     8 ar  
     9     8     9 1   
    10     9    10 1   
    11    10    11 1   
    12    10    18 1   
    13    11    12 2   
    14    11    13 1   
    15    13    14 1   
    16    13    15 1   
    17    15    16 1   
    18    15    17 1   
    19    17    18 1   
    20    18    19 1   
    21    18    22 1   
    22    19    21 1   
    23    19    20 1   
    24     1    23 1   
    25     1    24 1   
    26     1    25 1   
    27     4    26 1   
    28     6    27 1   
    29     5    28 1   
    30     7    29 1   
    31     9    30 1   
    32     9    31 1   
    33    10    32 1   
    34    13    33 1   
    35    14    34 1   
    36    15    35 1   
    37    16    36 1   
    38    17    37 1   
    39    17    38 1   
    40    22    39 1   
@<TRIPOS>SUBSTRUCTURE
     1 3DQ         1 TEMP              0 ****  ****    0 ROOT
