@<TRIPOS>MOLECULE
3DQ
   39    40     1     0     0
SMALL
bcc


@<TRIPOS>ATOM
      1 CAA        -0.7060   -0.2480    0.7520 c3        1 3DQ      0.118700
      2 OAN         0.6490   -0.3490    0.3420 os        1 3DQ     -0.341900
      3 CAR         1.5950   -0.2150    1.3490 ca        1 3DQ      0.099100
      4 CAK         2.9300   -0.2900    0.9190 ca        1 3DQ     -0.185500
      5 CAI         3.9510   -0.1690    1.8570 ca        1 3DQ     -0.092000
      6 CAJ         1.2890   -0.0210    2.7010 ca        1 3DQ     -0.185500
      7 CAH         2.3240    0.0970    3.6260 ca        1 3DQ     -0.092000
      8 CAQ         3.6610    0.0240    3.2120 ca        1 3DQ     -0.097300
      9 CAL         4.7510    0.1240    4.2230 c3        1 3DQ     -0.038100
     10 CAU         4.8010    1.5040    4.8810 c3        1 3DQ     -0.156700
     11 CAP         6.0860    2.2000    4.5240 c         1 3DQ      0.572100
     12 OAC         6.1660    3.1580    3.7470 o         1 3DQ     -0.561100
     13 CAT         7.3320    1.6760    5.2130 c3        1 3DQ     -0.004900
     14 OAF         8.5010    2.4090    4.8800 oh        1 3DQ     -0.615800
     15 CAS         7.1240    1.6950    6.7380 c3        1 3DQ      0.131100
     16 OAE         8.2410    1.1050    7.3890 oh        1 3DQ     -0.605800
     17 CAM         5.8820    0.8990    7.1120 c3        1 3DQ     -0.061400
     18 CAV         4.6420    1.4540    6.4200 c3        1 3DQ      0.027800
     19 CAO         3.3830    0.5980    6.7900 c         1 3DQ      0.900600
     20 OAB         3.5140   -0.6400    6.9630 o         1 3DQ     -0.818800
     21 OAD         2.2960    1.2380    6.8750 o         1 3DQ     -0.818800
     22 OAG         4.4600    2.7930    6.8700 oh        1 3DQ     -0.638800
     23 HAA1       -0.9640   -1.0640    1.4710 h1        1 3DQ      0.036700
     24 HAA2       -1.2810   -0.3680   -0.2000 h1        1 3DQ      0.036700
     25 HAA3       -0.9090    0.7510    1.2100 h1        1 3DQ      0.036700
     26 HAK         3.1510   -0.4400   -0.1450 ha        1 3DQ      0.132000
     27 HAJ         0.2480    0.0400    3.0470 ha        1 3DQ      0.132000
     28 HAI         4.9980   -0.2250    1.5240 ha        1 3DQ      0.159500
     29 HAH         2.0970    0.2480    4.7020 ha        1 3DQ      0.159500
     30 HAL1        4.5750   -0.6590    5.0180 hc        1 3DQ      0.071200
     31 HAL2        5.7360   -0.1090    3.7380 hc        1 3DQ      0.071200
     32 HAU         3.9430    2.1300    4.4980 hc        1 3DQ      0.092700
     33 HAT         7.5430    0.6220    4.8730 h1        1 3DQ      0.093700
     34 HAF         8.2280    3.3130    4.6720 ho        1 3DQ      0.416000
     35 HAS         7.0190    2.7630    7.0820 h1        1 3DQ      0.050700
     36 HAE         9.0250    1.5200    7.0070 ho        1 3DQ      0.401000
     37 HAM1        6.0010   -0.1780    6.8290 hc        1 3DQ      0.071700
     38 HAM2        5.7350    0.9490    8.2200 hc        1 3DQ      0.071700
     39 HAG         3.5040    2.9240    6.9820 ho        1 3DQ      0.433000
@<TRIPOS>BOND
     1    1    2 1   
     2    1   23 1   
     3    1   24 1   
     4    1   25 1   
     5    2    3 1   
     6    3    4 ar  
     7    3    6 ar  
     8    4    5 ar  
     9    4   26 1   
    10    5    8 ar  
    11    5   28 1   
    12    6    7 ar  
    13    6   27 1   
    14    7    8 ar  
    15    7   29 1   
    16    8    9 1   
    17    9   10 1   
    18    9   30 1   
    19    9   31 1   
    20   10   11 1   
    21   10   18 1   
    22   10   32 1   
    23   11   12 2   
    24   11   13 1   
    25   13   14 1   
    26   13   15 1   
    27   13   33 1   
    28   14   34 1   
    29   15   16 1   
    30   15   17 1   
    31   15   35 1   
    32   16   36 1   
    33   17   18 1   
    34   17   37 1   
    35   17   38 1   
    36   18   19 1   
    37   18   22 1   
    38   19   20 1   
    39   19   21 1   
    40   22   39 1   
@<TRIPOS>SUBSTRUCTURE
     1 3DQ         1 TEMP              0 ****  ****    0 ROOT
