@<TRIPOS>MOLECULE
molecule
   19    19     1     0     0
SMALL
bcc


@<TRIPOS>ATOM
      1 OAA          0.0000     0.0000     0.0000 o          1 3DS      -0.824300
      2 OAB          1.3360    -0.1440     4.7240 o          1 3DS      -0.578100
      3 OAC          1.8440    -0.5680    -0.9310 o          1 3DS      -0.824300
      4 OAD          3.4520     2.2990     2.5750 oh         1 3DS      -0.590800
      5 OAE          4.0710    -1.0840     3.7150 oh         1 3DS      -0.589800
      6 CAF          1.2530    -0.0020     2.4200 ce         1 3DS      -0.335200
      7 CAG          3.4860     0.3630     1.1650 c3         1 3DS      -0.035200
      8 CAH          1.2140     0.0000     0.0000 c          1 3DS       0.891800
      9 CAI          1.9480     0.0000     3.7200 c          1 3DS       0.585300
     10 CAJ          2.0800     0.1870     1.1400 cf         1 3DS      -0.034400
     11 CAK          3.9450     0.9760     2.4930 c3         1 3DS       0.146100
     12 CAL          3.4510     0.1900     3.7140 c3         1 3DS       0.036100
     13 HAF          0.1790    -0.1340     2.3690 ha         1 3DS       0.176000
     14 HAG          3.9590    -0.6030     1.0350 hc         1 3DS       0.076200
     15 HAGA         3.7700     1.0110     0.3450 hc         1 3DS       0.076200
     16 HAK          5.0280     0.9990     2.5090 h1         1 3DS       0.013700
     17 HAL          3.7380     0.7250     4.6110 h1         1 3DS       0.029700
     18 HOAD         4.1750     2.9040     2.5760 ho         1 3DS       0.386000
     19 HOAE         4.4560    -1.2460     4.5600 ho         1 3DS       0.393000
@<TRIPOS>BOND
     1     1     8 1
     2     2     9 2
     3     8     3 1
     4    11     4 1
     5     4    18 1
     6     5    12 1
     7     5    19 1
     8     9     6 1
     9     6    10 2
    10     6    13 1
    11    10     7 1
    12    11     7 1
    13     7    14 1
    14     7    15 1
    15    10     8 1
    16     9    12 1
    17    12    11 1
    18    11    16 1
    19    12    17 1
@<TRIPOS>SUBSTRUCTURE
     1 3DS         1 TEMP              0 ****  ****    0 ROOT
