@<TRIPOS>MOLECULE
3DS
   19    19     1     0     0
SMALL
bcc


@<TRIPOS>ATOM
      1 OAA         0.4490    0.8780   -0.1840 o         1 3DS     -0.811300
      2 OAB         1.4710   -0.1110    4.8540 o         1 3DS     -0.597100
      3 OAC         1.3680   -1.0330   -0.9030 o         1 3DS     -0.811300
      4 OAD         5.2380   -1.5470    2.3760 oh        1 3DS     -0.606800
      5 OAE         4.0590   -0.9620    4.8540 oh        1 3DS     -0.626800
      6 CAF         1.3460    0.0140    2.4640 ce        1 3DS     -0.309200
      7 CAG         3.3150   -0.8120    1.1840 c3        1 3DS     -0.068200
      8 CAH         1.1860   -0.1320   -0.0400 c         1 3DS      0.899800
      9 CAI         2.0170   -0.1600    3.7390 c         1 3DS      0.561300
     10 CAJ         1.9320   -0.2880    1.2890 cf        1 3DS     -0.049400
     11 CAK         3.8330   -1.3760    2.5030 c3        1 3DS      0.142100
     12 CAL         3.5150   -0.4150    3.6620 c3        1 3DS     -0.006900
     13 HAF         0.3160    0.4050    2.4900 ha        1 3DS      0.164000
     14 HAG         3.3400   -1.6120    0.3930 hc        1 3DS      0.087200
     15 HAGA        3.9940    0.0150    0.8380 hc        1 3DS      0.087200
     16 HAK         3.3630   -2.3770    2.7170 h1        1 3DS      0.039700
     17 HAL         4.0410    0.5670    3.4880 h1        1 3DS      0.077700
     18 HOAD        5.5640   -1.7700    3.2570 ho        1 3DS      0.406000
     19 HOAE        3.3480   -1.0060    5.5100 ho        1 3DS      0.423000
@<TRIPOS>BOND
     1    1    8 1   
     2    2    9 2   
     3    3    8 1   
     4    4   11 1   
     5    4   18 1   
     6    5   12 1   
     7    5   19 1   
     8    6    9 1   
     9    6   10 2   
    10    6   13 1   
    11    7   10 1   
    12    7   11 1   
    13    7   14 1   
    14    7   15 1   
    15    8   10 1   
    16    9   12 1   
    17   11   12 1   
    18   11   16 1   
    19   12   17 1   
@<TRIPOS>SUBSTRUCTURE
     1 3DS         1 TEMP              0 ****  ****    0 ROOT
