@<TRIPOS>MOLECULE
molecule
   34    35     1     0     0
SMALL
bcc


@<TRIPOS>ATOM
      1 N1           0.0000     0.0000     0.0000 n          1 3DT      -0.363000
      2 C2           1.3460     0.0000     0.0000 c          1 3DT       0.814500
      3 O2           1.9450     0.0010    -1.0580 o          1 3DT      -0.657500
      4 N3           2.0370     0.0000     1.1540 n          1 3DT      -0.469400
      5 C4           1.3870    -0.0000     2.3360 c          1 3DT       0.709700
      6 O4           2.0120     0.0000     3.3810 o          1 3DT      -0.620500
      7 C5          -0.0280    -0.0000     2.3500 cc         1 3DT      -0.278400
      8 C6          -0.6970    -0.0000     1.1770 cd         1 3DT       0.037600
      9 C7          -0.7790    -0.0000     3.6570 c3         1 3DT      -0.012900
     10 CN           3.5020    -0.0010     1.1280 c3         1 3DT       0.098300
     11 C1'         -0.7250     0.0060    -1.2730 c3         1 3DT       0.308500
     12 C2'         -1.5170    -1.3070    -1.4320 c3         1 3DT      -0.156400
     13 C3'         -2.9870    -0.8460    -1.5880 c3         1 3DT       0.109100
     14 O3'         -3.6580    -1.6160    -2.5880 oh         1 3DT      -0.589800
     15 C4'         -2.8200     0.6250    -2.0420 c3         1 3DT       0.141100
     16 O4'         -1.6770     1.0830    -1.2890 os         1 3DT      -0.403600
     17 C5'         -4.0630     1.4430    -1.6870 c3         1 3DT       0.149400
     18 O5'         -3.9320     2.7640    -2.2170 oh         1 3DT      -0.595800
     19 H6          -1.7810    -0.0000     1.1680 h4         1 3DT       0.164000
     20 H7          -0.4690     0.8500     4.2510 hc         1 3DT       0.047033
     21 H7A         -0.5640    -0.9150     4.1960 hc         1 3DT       0.047033
     22 H7B         -1.8430     0.0630     3.4620 hc         1 3DT       0.047033
     23 HN           3.8640    -1.0210     1.1790 h1         1 3DT       0.062367
     24 HNA          3.8790     0.5590     1.9760 h1         1 3DT       0.062367
     25 HNB          3.8470     0.4590     0.2100 h1         1 3DT       0.062367
     26 H1'         -0.0310     0.1180    -2.0980 h2         1 3DT       0.117700
     27 H2'         -1.4070    -1.9230    -0.5480 hc         1 3DT       0.077700
     28 H2'A        -1.1930    -1.8400    -2.3170 hc         1 3DT       0.077700
     29 H3'         -3.5070    -0.8970    -0.6390 h1         1 3DT       0.045700
     30 HO3'        -4.1620    -2.2970    -2.1750 ho         1 3DT       0.410000
     31 H4'         -2.6160     0.6720    -3.1050 h1         1 3DT       0.087700
     32 H5'         -4.9400     0.9690    -2.1100 h1         1 3DT       0.032200
     33 H5'A        -4.1650     1.4960    -0.6090 h1         1 3DT       0.032200
     34 HO5'        -4.7080     3.2610    -2.0160 ho         1 3DT       0.406000
@<TRIPOS>BOND
     1     1     2 1
     2     1     8 1
     3     1    11 1
     4     2     3 2
     5     2     4 1
     6     4     5 1
     7     4    10 1
     8     5     6 2
     9     5     7 1
    10     7     8 2
    11     7     9 1
    12    11    12 1
    13    11    16 1
    14    12    13 1
    15    13    14 1
    16    13    15 1
    17    15    16 1
    18    15    17 1
    19    17    18 1
    20     8    19 1
    21     9    20 1
    22     9    21 1
    23     9    22 1
    24    10    23 1
    25    10    24 1
    26    10    25 1
    27    11    26 1
    28    12    27 1
    29    12    28 1
    30    13    29 1
    31    14    30 1
    32    15    31 1
    33    17    32 1
    34    17    33 1
    35    18    34 1
@<TRIPOS>SUBSTRUCTURE
     1 3DT         1 TEMP              0 ****  ****    0 ROOT
