@<TRIPOS>MOLECULE
molecule
   33    34     1     0     0
SMALL
bcc


@<TRIPOS>ATOM
      1 OP3          0.0000     0.0000     0.0000 o          1 3DU      -0.907500
      2 P            1.4800     0.0000     0.0000 p5         1 3DU       1.176900
      3 OP1          2.0160     0.0000     1.5170 o          1 3DU      -0.907500
      4 OP2          2.0170    -1.3150    -0.7590 o          1 3DU      -0.907500
      5 O5'          2.0160     1.3150    -0.7580 os         1 3DU      -0.566200
      6 C5'          1.6270     1.6580    -2.0900 c3         1 3DU       0.227400
      7 C4'          2.3160     2.9590    -2.5040 c3         1 3DU       0.124100
      8 O4'          3.7330     2.7460    -2.6760 os         1 3DU      -0.344600
      9 C3'          1.8140     3.4170    -3.8920 c3         1 3DU       0.099100
     10 O3'          0.8050     4.4190    -3.7540 oh         1 3DU      -0.587800
     11 C2'          3.0720     4.0050    -4.5710 c3         1 3DU       0.075100
     12 O2'          2.8770     5.3880    -4.8720 oh         1 3DU      -0.594800
     13 C1'          4.1840     3.8340    -3.5120 c3         1 3DU       0.277500
     14 N1           5.4530     3.4890    -4.1580 n          1 3DU      -0.310000
     15 C2           5.5470     2.3490    -4.8680 c          1 3DU       0.685700
     16 O2           4.5780     1.6130    -4.9690 o          1 3DU      -0.603500
     17 C3           6.7530     2.0070    -5.4910 cc         1 3DU      -0.286200
     18 C4           7.8390     2.8530    -5.3650 cd         1 3DU       0.164100
     19 O4           9.0190     2.5490    -5.9580 oh         1 3DU      -0.535100
     20 C5           7.7000     4.0360    -4.6130 cd         1 3DU      -0.302000
     21 C6           6.5160     4.3280    -4.0350 cc         1 3DU       0.047600
     22 H3           1.9180     0.8640    -2.7680 h1         1 3DU       0.028700
     23 H4           0.5520     1.7900    -2.1300 h1         1 3DU       0.028700
     24 H5           2.1410     3.7350    -1.7680 h1         1 3DU       0.068700
     25 H6           1.4420     2.5700    -4.4570 h1         1 3DU       0.063700
     26 H7           0.0540     4.1820    -4.2720 ho         1 3DU       0.388000
     27 H8           3.3140     3.4460    -5.4660 h1         1 3DU       0.060700
     28 H9           2.8710     5.5080    -5.8070 ho         1 3DU       0.385000
     29 H10          4.2860     4.7390    -2.9260 h2         1 3DU       0.071700
     30 H11          6.8340     1.0910    -6.0640 ha         1 3DU       0.165000
     31 H12          9.5560     2.0600    -5.3560 ho         1 3DU       0.423000
     32 H13          8.5390     4.7120    -4.5050 ha         1 3DU       0.138000
     33 H14          6.4130     5.2390    -3.4570 h4         1 3DU       0.154000
@<TRIPOS>BOND
     1    16    15 2
     2    17    15 1
     3    17    18 2
     4    15    14 1
     5     8    13 1
     6     8     7 1
     7    19    18 1
     8    18    20 1
     9    14    13 1
    10    14    21 1
    11    13    11 1
    12    10     9 1
    13     7     9 1
    14     7     6 1
    15    21    20 2
    16     9    11 1
    17    11    12 1
    18     6     5 1
    19     5     2 1
    20     1     2 1
    21     2     3 1
    22     2     4 1
    23     6    22 1
    24     6    23 1
    25     7    24 1
    26     9    25 1
    27    10    26 1
    28    11    27 1
    29    12    28 1
    30    13    29 1
    31    17    30 1
    32    19    31 1
    33    20    32 1
    34    21    33 1
@<TRIPOS>SUBSTRUCTURE
     1 3DU         1 TEMP              0 ****  ****    0 ROOT
