@<TRIPOS>MOLECULE
molecule
   35    37     1     0     0
SMALL
bcc


@<TRIPOS>ATOM
      1 O2           0.0000     0.0000     0.0000 o          1 3DV      -0.832800
      2 C11          1.3470     0.0000     0.0000 c          1 3DV       0.878200
      3 O1           1.9550     0.0000     1.0520 o          1 3DV      -0.832800
      4 C8           2.0870    -0.0010    -1.2770 ca         1 3DV      -0.083600
      5 C7           1.3880     0.0040    -2.4880 ca         1 3DV      -0.111000
      6 C6           2.0780     0.0030    -3.6790 ca         1 3DV      -0.131500
      7 C9           3.4840    -0.0010    -1.2770 ca         1 3DV      -0.111000
      8 C10          4.1720    -0.0020    -2.4700 ca         1 3DV      -0.131500
      9 C5           3.4740    -0.0030    -3.6780 cp         1 3DV      -0.191500
     10 C1           4.2150    -0.0050    -4.9610 cp         1 3DV       0.353500
     11 N2           3.8390     0.7980    -5.9490 nb         1 3DV      -0.625000
     12 C4           4.5060     0.7930    -7.0970 cp         1 3DV       0.295500
     13 C3           5.6010    -0.0540    -7.2660 ca         1 3DV       0.327900
     14 N1           5.9800    -0.8540    -6.2850 nb         1 3DV      -0.727000
     15 C2           5.3230    -0.8520    -5.1330 ca         1 3DV       0.579900
     16 N3           5.7240    -1.6880    -4.1040 nv         1 3DV      -1.017500
     17 C12          4.0860     1.6890    -8.2010 cp         1 3DV      -0.106500
     18 C17          4.7160     1.6130    -9.4410 ca         1 3DV      -0.149000
     19 C16          4.3190     2.4530   -10.4680 ca         1 3DV       0.093100
     20 O3           4.9320     2.3810   -11.6800 oh         1 3DV      -0.526100
     21 C15          3.2950     3.3670   -10.2620 ca         1 3DV      -0.161000
     22 C14          2.6690     3.4420    -9.0310 ca         1 3DV      -0.123000
     23 C13          3.0540     2.6060    -8.0040 ca         1 3DV      -0.100000
     24 H2           0.3050    -0.0130    -2.4890 ha         1 3DV       0.154500
     25 H3           1.5370    -0.0400    -4.6170 ha         1 3DV       0.118000
     26 H4           4.0260     0.0520    -0.3400 ha         1 3DV       0.154500
     27 H5           5.2530     0.0710    -2.4700 ha         1 3DV       0.118000
     28 H6           6.1420    -0.0570    -8.2040 h4         1 3DV       0.021100
     29 H7           5.0400    -2.1230    -3.5170 hn         1 3DV       0.444800
     30 H8           6.6970    -1.8680    -3.9550 hn         1 3DV       0.444800
     31 H9           5.4590     0.8470    -9.6240 ha         1 3DV       0.138000
     32 H10          4.4310     1.8250   -12.2530 ho         1 3DV       0.412000
     33 H11          2.9870     4.0250   -11.0660 ha         1 3DV       0.131000
     34 H12          1.8680     4.1550    -8.8750 ha         1 3DV       0.132000
     35 H13          2.5610     2.6680    -7.0410 ha         1 3DV       0.165000
@<TRIPOS>BOND
     1     3     2 1
     2     1     2 1
     3     2     4 1
     4     5     4 ar
     5     5     6 ar
     6     4     7 ar
     7     6     9 ar
     8     7     8 ar
     9     9     8 ar
    10     9    10 1
    11    22    23 ar
    12    22    21 ar
    13    23    17 ar
    14    11    10 ar
    15    11    12 ar
    16    10    15 ar
    17    21    19 ar
    18    17    12 1
    19    17    18 ar
    20    12    13 ar
    21    16    15 1
    22    15    14 ar
    23    13    14 ar
    24    19    18 ar
    25    19    20 1
    26     5    24 1
    27     6    25 1
    28     7    26 1
    29     8    27 1
    30    13    28 1
    31    16    29 1
    32    16    30 1
    33    18    31 1
    34    20    32 1
    35    21    33 1
    36    22    34 1
    37    23    35 1
@<TRIPOS>SUBSTRUCTURE
     1 3DV         1 TEMP              0 ****  ****    0 ROOT
