@<TRIPOS>MOLECULE
3DV
   35    37     1     0     0
SMALL
bcc


@<TRIPOS>ATOM
      1 O2           0.0000     0.0000     0.0000 o          1 3DV      -0.881300
      2 C11          1.3470     0.0000     0.0000 c          1 3DV       0.969200
      3 O1           1.9550     0.0000     1.0520 o          1 3DV      -0.881300
      4 C8           2.0870    -0.0010    -1.2770 ca         1 3DV      -0.084600
      5 C7           1.3880     0.0040    -2.4880 ca         1 3DV      -0.080000
      6 C6           2.0780     0.0030    -3.6790 ca         1 3DV      -0.118000
      7 C9           3.4840    -0.0010    -1.2770 ca         1 3DV      -0.080000
      8 C10          4.1720    -0.0020    -2.4700 ca         1 3DV      -0.118000
      9 C5           3.4740    -0.0030    -3.6780 cp         1 3DV      -0.198500
     10 C1           4.2150    -0.0050    -4.9610 cp         1 3DV       0.308500
     11 N2           3.8390     0.7980    -5.9490 nb         1 3DV      -0.500000
     12 C4           4.5060     0.7930    -7.0970 cp         1 3DV       0.245500
     13 C3           5.6010    -0.0540    -7.2660 ca         1 3DV       0.314900
     14 N1           5.9800    -0.8540    -6.2850 nb         1 3DV      -0.629000
     15 C2           5.3230    -0.8520    -5.1330 ca         1 3DV       0.394900
     16 N3           5.7240    -1.6880    -4.1040 nv         1 3DV      -0.546500
     17 C12          4.0860     1.6890    -8.2010 cp         1 3DV      -0.098500
     18 C17          4.7160     1.6130    -9.4410 ca         1 3DV      -0.144000
     19 C16          4.3190     2.4530   -10.4680 ca         1 3DV       0.113100
     20 O3           4.9320     2.3810   -11.6800 oh         1 3DV      -0.505100
     21 C15          3.2950     3.3670   -10.2620 ca         1 3DV      -0.152000
     22 C14          2.6690     3.4420    -9.0310 ca         1 3DV      -0.087000
     23 C13          3.0540     2.6060    -8.0040 ca         1 3DV      -0.089000
     24 H2           0.3050    -0.0130    -2.4890 ha         1 3DV       0.127500
     25 H3           1.5370    -0.0400    -4.6170 ha         1 3DV       0.094500
     26 H4           4.0260     0.0520    -0.3400 ha         1 3DV       0.127500
     27 H5           5.2530     0.0710    -2.4700 ha         1 3DV       0.094500
     28 H6           6.1420    -0.0570    -8.2040 h4         1 3DV      -0.013900
     29 H7           5.0400    -2.1230    -3.5170 hn         1 3DV       0.279800
     30 H8           6.6970    -1.8680    -3.9550 hn         1 3DV       0.279800
     31 H9           5.4590     0.8470    -9.6240 ha         1 3DV       0.118000
     32 H10          4.4310     1.8250   -12.2530 ho         1 3DV       0.396000
     33 H11          2.9870     4.0250   -11.0660 ha         1 3DV       0.106000
     34 H12          1.8680     4.1550    -8.8750 ha         1 3DV       0.101000
     35 H13          2.5610     2.6680    -7.0410 ha         1 3DV       0.134000
@<TRIPOS>BOND
     1     1     2 1   
     2     2     3 1   
     3     2     4 1   
     4     4     5 ar  
     5     4     7 ar  
     6     5     6 ar  
     7     5    24 1   
     8     6     9 ar  
     9     6    25 1   
    10     7     8 ar  
    11     7    26 1   
    12     8     9 ar  
    13     8    27 1   
    14     9    10 1   
    15    10    11 ar  
    16    10    15 ar  
    17    11    12 ar  
    18    12    13 ar  
    19    12    17 1   
    20    13    14 ar  
    21    13    28 1   
    22    14    15 ar  
    23    15    16 1   
    24    16    29 1   
    25    16    30 1   
    26    17    18 ar  
    27    17    23 ar  
    28    18    19 ar  
    29    18    31 1   
    30    19    20 1   
    31    19    21 ar  
    32    20    32 1   
    33    21    22 ar  
    34    21    33 1   
    35    22    23 ar  
    36    22    34 1   
    37    23    35 1   
@<TRIPOS>SUBSTRUCTURE
     1 3DV         1 TEMP              0 ****  ****    0 ROOT
