@<TRIPOS>MOLECULE
molecule
   49    53     1     0     0
SMALL
bcc


@<TRIPOS>ATOM
      1 O2           0.0000     0.0000     0.0000 o          1 3DW      -0.816800
      2 C22          1.3470     0.0000     0.0000 c          1 3DW       0.782100
      3 O1           1.9540     0.0000     1.0520 o          1 3DW      -0.816800
      4 C9           2.0850     0.0000    -1.2800 ca         1 3DW       0.386800
      5 N3           1.4110    -0.0010    -2.4290 nb         1 3DW      -0.606000
      6 C10          2.0130    -0.0000    -3.5950 ca         1 3DW       0.376200
      7 C7           3.4050     0.0000    -3.6810 ca         1 3DW      -0.152500
      8 N2           4.2840    -0.0010    -4.7420 na         1 3DW      -0.283000
      9 C2           5.5880    -0.0000    -4.2910 ca         1 3DW       0.506800
     10 C8           3.4780     0.0060    -1.2710 ca         1 3DW      -0.175300
     11 C6           4.1520     0.0010    -2.4880 cp         1 3DW      -0.083000
     12 C1           5.5680    -0.0010    -2.8860 cp         1 3DW      -0.191300
     13 C5           6.7690     0.0010    -2.1800 ca         1 3DW      -0.028000
     14 C4           7.9590     0.0000    -2.9080 cp         1 3DW      -0.218300
     15 C3           7.9000    -0.0010    -4.3030 ca         1 3DW       0.456200
     16 N1           6.7480    -0.0020    -4.9380 nb         1 3DW      -0.739000
     17 C11          9.2680     0.0010    -2.2100 cp         1 3DW      -0.029000
     18 C16         10.4520     0.0000    -2.9470 ca         1 3DW      -0.106000
     19 C15         11.6670     0.0010    -2.2960 ca         1 3DW      -0.162000
     20 C14         11.7130     0.0020    -0.9070 ca         1 3DW       0.089600
     21 C13         10.5330     0.0030    -0.1700 ca         1 3DW      -0.162000
     22 C12          9.3160     0.0080    -0.8170 ca         1 3DW      -0.106000
     23 N4          12.9450     0.0030    -0.2490 nh         1 3DW      -0.600000
     24 C20         13.7690    -1.1380    -0.6740 c3         1 3DW       0.165300
     25 C19         15.1360    -1.0570     0.0070 c3         1 3DW       0.160300
     26 N5          14.9560    -1.0560     1.4650 n3         1 3DW      -0.733600
     27 C21         16.2520    -1.0560     2.1570 c3         1 3DW       0.153100
     28 C18         14.1320     0.0850     1.8900 c3         1 3DW       0.160300
     29 C17         12.7640     0.0040     1.2090 c3         1 3DW       0.165300
     30 H2           1.4210    -0.0010    -4.5030 h4         1 3DW       0.001100
     31 H3           4.0140    -0.0020    -5.7060 hn         1 3DW       0.295700
     32 H4           4.0130     0.2320    -0.3560 ha         1 3DW       0.159000
     33 H5           6.7780     0.0020    -1.0970 ha         1 3DW       0.146000
     34 H6           8.8210    -0.0010    -4.8730 h4         1 3DW       0.016100
     35 H7          10.4170    -0.0000    -4.0290 ha         1 3DW       0.136000
     36 H8          12.5870     0.0000    -2.8670 ha         1 3DW       0.132000
     37 H9          10.5710     0.0060     0.9120 ha         1 3DW       0.132000
     38 H10          8.3970     0.0090    -0.2430 ha         1 3DW       0.136000
     39 H11         13.2790    -2.0620    -0.3900 h1         1 3DW       0.050700
     40 H12         13.8990    -1.1070    -1.7490 h1         1 3DW       0.050700
     41 H13         15.7330    -1.9140    -0.2810 h1         1 3DW       0.039450
     42 H14         15.6360    -0.1450    -0.2950 h1         1 3DW       0.039450
     43 H16         16.0900    -1.0890     3.2270 h1         1 3DW       0.030367
     44 H17         16.7980    -0.1560     1.9020 h1         1 3DW       0.030367
     45 H18         16.8250    -1.9240     1.8510 h1         1 3DW       0.030367
     46 H19         14.0010     0.0540     2.9650 h1         1 3DW       0.039450
     47 H20         14.6220     1.0080     1.6060 h1         1 3DW       0.039450
     48 H21         12.1670     0.8610     1.4970 h1         1 3DW       0.050700
     49 H22         12.2650    -0.9090     1.5100 h1         1 3DW       0.050700
@<TRIPOS>BOND
     1    16    15 ar  
     2    16     9 ar  
     3    22    21 ar  
     4    22    17 ar  
     5    15    14 ar  
     6    21    20 ar  
     7    24    25 1   
     8    24    23 1   
     9     9     8 1   
    10     9    12 ar  
    11     8     7 1   
    12    14    17 1   
    13    14    13 ar  
    14    25    26 1   
    15    17    18 ar  
    16    20    23 1   
    17    20    19 ar  
    18    26    27 1   
    19    26    28 1   
    20    23    29 1   
    21    12    13 ar  
    22    12    11 1   
    23     7     6 ar  
    24     7    11 ar  
    25    29    28 1   
    26    18    19 ar  
    27     6     5 ar  
    28    11    10 ar  
    29     5     4 ar  
    30    10     4 ar  
    31     4     2 1   
    32     2     3 1   
    33     2     1 1   
    34     6    30 1   
    35     8    31 1   
    36    10    32 1   
    37    13    33 1   
    38    15    34 1   
    39    18    35 1   
    40    19    36 1   
    41    21    37 1   
    42    22    38 1   
    43    24    39 1   
    44    24    40 1   
    45    25    41 1   
    46    25    42 1   
    47    27    43 1   
    48    27    44 1   
    49    27    45 1   
    50    28    46 1   
    51    28    47 1   
    52    29    48 1   
    53    29    49 1   
@<TRIPOS>SUBSTRUCTURE
     1 3DW         1 TEMP              0 ****  ****    0 ROOT
