@<TRIPOS>MOLECULE
3DW
   49    53     1     0     0
SMALL
bcc


@<TRIPOS>ATOM
      1 O2           0.0000     0.0000     0.0000 o          1 3DW      -0.870300
      2 C22          1.3470     0.0000     0.0000 c          1 3DW       0.864100
      3 O1           1.9540     0.0000     1.0520 o          1 3DW      -0.870300
      4 C9           2.0850     0.0000    -1.2800 ca         1 3DW       0.338800
      5 N3           1.4110    -0.0010    -2.4290 nb         1 3DW      -0.484000
      6 C10          2.0130    -0.0000    -3.5950 ca         1 3DW       0.359200
      7 C7           3.4050     0.0000    -3.6810 ca         1 3DW      -0.335500
      8 N2           4.2840    -0.0010    -4.7420 na         1 3DW       0.248000
      9 C2           5.5880    -0.0000    -4.2910 ca         1 3DW       0.273800
     10 C8           3.4780     0.0060    -1.2710 ca         1 3DW      -0.138300
     11 C6           4.1520     0.0010    -2.4880 cp         1 3DW      -0.082000
     12 C1           5.5680    -0.0010    -2.8860 cp         1 3DW      -0.188300
     13 C5           6.7690     0.0010    -2.1800 ca         1 3DW       0.004000
     14 C4           7.9590     0.0000    -2.9080 cp         1 3DW      -0.217300
     15 C3           7.9000    -0.0010    -4.3030 ca         1 3DW       0.421200
     16 N1           6.7480    -0.0020    -4.9380 nb         1 3DW      -0.613000
     17 C11          9.2680     0.0010    -2.2100 cp         1 3DW      -0.016000
     18 C16         10.4520     0.0000    -2.9470 ca         1 3DW      -0.085500
     19 C15         11.6670     0.0010    -2.2960 ca         1 3DW      -0.141000
     20 C14         11.7130     0.0020    -0.9070 ca         1 3DW       0.003600
     21 C13         10.5330     0.0030    -0.1700 ca         1 3DW      -0.141000
     22 C12          9.3160     0.0080    -0.8170 ca         1 3DW      -0.085500
     23 N4          12.9450     0.0030    -0.2490 nh         1 3DW      -0.366000
     24 C20         13.7690    -1.1380    -0.6740 c3         1 3DW       0.135300
     25 C19         15.1360    -1.0570     0.0070 c3         1 3DW       0.152800
     26 N5          14.9560    -1.0560     1.4650 n3         1 3DW      -0.548600
     27 C21         16.2520    -1.0560     2.1570 c3         1 3DW       0.189100
     28 C18         14.1320     0.0850     1.8900 c3         1 3DW       0.152800
     29 C17         12.7640     0.0040     1.2090 c3         1 3DW       0.135300
     30 H2           1.4210    -0.0010    -4.5030 h4         1 3DW      -0.037900
     31 H3           4.0140    -0.0020    -5.7060 hn         1 3DW       0.112700
     32 H4           4.0130     0.2320    -0.3560 ha         1 3DW       0.132000
     33 H5           6.7780     0.0020    -1.0970 ha         1 3DW       0.118000
     34 H6           8.8210    -0.0010    -4.8730 h4         1 3DW      -0.023900
     35 H7          10.4170    -0.0000    -4.0290 ha         1 3DW       0.114500
     36 H8          12.5870     0.0000    -2.8670 ha         1 3DW       0.114000
     37 H9          10.5710     0.0060     0.9120 ha         1 3DW       0.114000
     38 H10          8.3970     0.0090    -0.2430 ha         1 3DW       0.114500
     39 H11         13.2790    -2.0620    -0.3900 h1         1 3DW       0.025700
     40 H12         13.8990    -1.1070    -1.7490 h1         1 3DW       0.025700
     41 H13         15.7330    -1.9140    -0.2810 h1         1 3DW       0.012450
     42 H14         15.6360    -0.1450    -0.2950 h1         1 3DW       0.012450
     43 H16         16.0900    -1.0890     3.2270 h1         1 3DW      -0.001633
     44 H17         16.7980    -0.1560     1.9020 h1         1 3DW      -0.001633
     45 H18         16.8250    -1.9240     1.8510 h1         1 3DW      -0.001633
     46 H19         14.0010     0.0540     2.9650 h1         1 3DW       0.012450
     47 H20         14.6220     1.0080     1.6060 h1         1 3DW       0.012450
     48 H21         12.1670     0.8610     1.4970 h1         1 3DW       0.025700
     49 H22         12.2650    -0.9090     1.5100 h1         1 3DW       0.025700
@<TRIPOS>BOND
     1     1     2 1   
     2     2     3 1   
     3     2     4 1   
     4     4     5 ar  
     5     4    10 ar  
     6     5     6 ar  
     7     6     7 ar  
     8     6    30 1   
     9     7     8 1   
    10     7    11 ar  
    11     8     9 1   
    12     8    31 1   
    13     9    12 ar  
    14     9    16 ar  
    15    10    11 ar  
    16    10    32 1   
    17    11    12 1   
    18    12    13 ar  
    19    13    14 ar  
    20    13    33 1   
    21    14    15 ar  
    22    14    17 1   
    23    15    16 ar  
    24    15    34 1   
    25    17    18 ar  
    26    17    22 ar  
    27    18    19 ar  
    28    18    35 1   
    29    19    20 ar  
    30    19    36 1   
    31    20    21 ar  
    32    20    23 1   
    33    21    22 ar  
    34    21    37 1   
    35    22    38 1   
    36    23    24 1   
    37    23    29 1   
    38    24    25 1   
    39    24    39 1   
    40    24    40 1   
    41    25    26 1   
    42    25    41 1   
    43    25    42 1   
    44    26    27 1   
    45    26    28 1   
    46    27    43 1   
    47    27    44 1   
    48    27    45 1   
    49    28    29 1   
    50    28    46 1   
    51    28    47 1   
    52    29    48 1   
    53    29    49 1   
@<TRIPOS>SUBSTRUCTURE
     1 3DW         1 TEMP              0 ****  ****    0 ROOT
