@<TRIPOS>MOLECULE
molecule
   48    52     1     0     0
SMALL
bcc


@<TRIPOS>ATOM
      1 N6          -1.2560     0.0130    -2.2390 n1         1 3DX      -0.346800
      2 C22         -0.7080     0.0000    -1.2440 cg         1 3DX       0.148800
      3 C9           0.0000     0.0000     0.0000 ca         1 3DX       0.469300
      4 N3           1.3320     0.0000     0.0000 nb         1 3DX      -0.634000
      5 C10          2.0350     0.0000     1.1090 ca         1 3DX       0.410200
      6 C7           1.4030    -0.0000     2.3520 ca         1 3DX      -0.105500
      7 N2           1.8760    -0.0000     3.6490 na         1 3DX      -0.274000
      8 C2           0.8280     0.0010     4.5460 ca         1 3DX       0.509800
      9 C8          -0.7120     0.0050     1.1970 ca         1 3DX      -0.154300
     10 C6          -0.0020    -0.0010     2.3950 cp         1 3DX      -0.067000
     11 C1          -0.3760    -0.0000     3.8180 cp         1 3DX      -0.208300
     12 C5          -1.5910     0.0060     4.4960 ca         1 3DX      -0.031000
     13 C4          -1.5650     0.0040     5.8910 cp         1 3DX      -0.178300
     14 C3          -0.3320    -0.0030     6.5460 ca         1 3DX       0.473200
     15 N1           0.7980     0.0010     5.8730 nb         1 3DX      -0.718000
     16 C11         -2.8290     0.0110     6.6680 cp         1 3DX      -0.061000
     17 C16         -4.0550     0.0150     6.0050 ca         1 3DX      -0.096000
     18 C15         -5.2290     0.0210     6.7290 ca         1 3DX      -0.163000
     19 C14         -5.1890     0.0250     8.1180 ca         1 3DX       0.112600
     20 C13         -3.9680     0.0230     8.7810 ca         1 3DX      -0.163000
     21 C12         -2.7920     0.0100     8.0620 ca         1 3DX      -0.096000
     22 N4          -6.3800     0.0330     8.8480 nh         1 3DX      -0.601000
     23 C20         -7.2230     1.1750     8.4700 c3         1 3DX       0.167300
     24 C19         -8.5480     1.1010     9.2330 c3         1 3DX       0.160300
     25 N5          -8.2790     1.1050    10.6780 n3         1 3DX      -0.728600
     26 C21         -9.5310     1.1130    11.4460 c3         1 3DX       0.150100
     27 C18         -7.4350    -0.0370    11.0560 c3         1 3DX       0.160300
     28 C17         -6.1110     0.0370    10.2930 c3         1 3DX       0.167300
     29 H1           3.1170     0.0000     1.0640 h4         1 3DX       0.032100
     30 H2           2.8380     0.0060     3.9240 hn         1 3DX       0.314700
     31 H3          -1.6950     0.4570     1.2400 ha         1 3DX       0.153000
     32 H4          -2.5210     0.0060     3.9410 ha         1 3DX       0.147000
     33 H5          -0.3000    -0.0050     7.6280 h4         1 3DX       0.034100
     34 H6          -4.0850     0.0120     4.9220 ha         1 3DX       0.131500
     35 H7          -6.1820     0.0230     6.2140 ha         1 3DX       0.140000
     36 H8          -3.9390     0.0260     9.8640 ha         1 3DX       0.140000
     37 H9          -1.8400     0.0030     8.5780 ha         1 3DX       0.131500
     38 H10         -7.4500     1.1080     7.4130 h1         1 3DX       0.049200
     39 H11         -6.6780     2.0910     8.6610 h1         1 3DX       0.049200
     40 H12         -9.1090     0.2450     8.8790 h1         1 3DX       0.043950
     41 H13         -9.1150     2.0040     9.0390 h1         1 3DX       0.043950
     42 H15        -10.1150     1.9840    11.1750 h1         1 3DX       0.034033
     43 H16         -9.3040     1.1450    12.5050 h1         1 3DX       0.034033
     44 H17        -10.0960     0.2160    11.2240 h1         1 3DX       0.034033
     45 H18         -7.1610     0.0600    12.1000 h1         1 3DX       0.043950
     46 H19         -8.0000    -0.9510    10.9190 h1         1 3DX       0.043950
     47 H20         -5.4970     0.8960    10.5330 h1         1 3DX       0.049200
     48 H21         -5.5740    -0.8680    10.5520 h1         1 3DX       0.049200
@<TRIPOS>BOND
     1     1     2 3
     2     2     3 1
     3     3     9 ar
     4     3     4 ar
     5     9    10 ar
     6     4     5 ar
     7    18    17 ar
     8    18    19 ar
     9    23    24 1
    10    23    22 1
    11    17    16 ar
    12    10     6 ar
    13    10    11 1
    14     5     6 ar
    15    12    11 ar
    16    12    13 ar
    17    24    25 1
    18     6     7 1
    19    11     8 ar
    20    22    19 1
    21    22    28 1
    22    19    20 ar
    23    25    26 1
    24    25    27 1
    25    16    13 1
    26    16    21 ar
    27    13    14 ar
    28    28    27 1
    29     7     8 1
    30     8    15 ar
    31    14    15 ar
    32    20    21 ar
    33     5    29 1
    34     7    30 1
    35     9    31 1
    36    12    32 1
    37    14    33 1
    38    17    34 1
    39    18    35 1
    40    20    36 1
    41    21    37 1
    42    23    38 1
    43    23    39 1
    44    24    40 1
    45    24    41 1
    46    26    42 1
    47    26    43 1
    48    26    44 1
    49    27    45 1
    50    27    46 1
    51    28    47 1
    52    28    48 1
@<TRIPOS>SUBSTRUCTURE
     1 3DX         1 TEMP              0 ****  ****    0 ROOT
