@<TRIPOS>MOLECULE
molecule
   54    55     1     0     0
SMALL
bcc


@<TRIPOS>ATOM
      1 OAA          0.0000     0.0000     0.0000 o          1 3DZ      -0.811300
      2 CAB          1.2080     0.0000     0.0000 c          1 3DZ       0.865600
      3 OAC          1.8800     0.0000     1.1630 o          1 3DZ      -0.811300
      4 CAD          1.9620    -0.0080    -1.3060 c3         1 3DZ      -0.135700
      5 CAE          0.9670    -0.0130    -2.4680 c3         1 3DZ      -0.019100
      6 CAF          0.1840     1.2740    -2.4660 ca         1 3DZ      -0.031300
      7 CAK          0.6490     2.3670    -3.1730 ca         1 3DZ      -0.091000
      8 CAJ         -0.0690     3.5480    -3.1720 ca         1 3DZ      -0.138000
      9 CAI         -1.2530     3.6360    -2.4630 ca         1 3DZ      -0.131000
     10 CAH         -1.7190     2.5430    -1.7560 ca         1 3DZ      -0.225300
     11 CAZ         -3.0080     2.6390    -0.9840 c3         1 3DZ       0.161100
     12 NBA         -4.1280     2.2470    -1.8490 nz         1 3DZ      -0.811600
     13 CAG         -1.0030     1.3610    -1.7620 ca         1 3DZ      -0.028000
     14 CAL          2.8410    -1.2560    -1.3800 c3         1 3DZ      -0.214600
     15 PAM          4.2900    -1.0450    -0.2950 p5         1 3DZ       0.828400
     16 OAN          3.8050    -0.9570     1.2380 o          1 3DZ      -0.680000
     17 OAO          5.0020     0.2000    -0.6590 o          1 3DZ      -0.680000
     18 CAP          5.4130    -2.4680    -0.4960 c3         1 3DZ      -0.052700
     19 NAQ          5.8560    -2.5480    -1.8940 nz         1 3DZ      -0.780600
     20 CAR          6.6290    -2.2900     0.4150 c3         1 3DZ      -0.062400
     21 CAS          6.1680    -2.2070     1.8710 c3         1 3DZ      -0.068100
     22 CAT          7.3660    -2.0310     2.7690 ca         1 3DZ      -0.070300
     23 CAU          8.0180    -3.1410     3.2760 ca         1 3DZ      -0.123000
     24 CAY          7.8160    -0.7630     3.0810 ca         1 3DZ      -0.123000
     25 CAX          8.9150    -0.6020     3.9040 ca         1 3DZ      -0.134000
     26 CAW          9.5640    -1.7110     4.4150 ca         1 3DZ      -0.139000
     27 CAV          9.1160    -2.9800     4.0990 ca         1 3DZ      -0.134000
     28 H2           2.5840     0.8770    -1.3680 hc         1 3DZ       0.073700
     29 H3           1.5050    -0.1070    -3.4040 hc         1 3DZ       0.032200
     30 H4           0.2870    -0.8490    -2.3580 hc         1 3DZ       0.032200
     31 H5           1.5770     2.2980    -3.7280 ha         1 3DZ       0.142000
     32 H6           0.2960     4.4040    -3.7260 ha         1 3DZ       0.132000
     33 H7          -1.8150     4.5620    -2.4620 ha         1 3DZ       0.106000
     34 H8          -2.9660     1.9780    -0.1270 hx         1 3DZ       0.112200
     35 H9          -3.1520     3.6580    -0.6470 hx         1 3DZ       0.112200
     36 H10         -4.1920     2.8810    -2.6210 hn         1 3DZ       0.441800
     37 H11         -4.9800     2.2730    -1.3250 hn         1 3DZ       0.441800
     38 H13         -1.3680     0.5040    -1.2080 ha         1 3DZ       0.202000
     39 H14          2.2710    -2.1190    -1.0580 hc         1 3DZ       0.018200
     40 H15          3.1730    -1.4030    -2.4010 hc         1 3DZ       0.018200
     41 H17          4.8920    -3.3790    -0.2290 hx         1 3DZ       0.099700
     42 H18          5.1280    -2.9460    -2.4520 hn         1 3DZ       0.431800
     43 H19          6.0690    -1.6290    -2.2290 hn         1 3DZ       0.431800
     44 H21          7.2960    -3.1360     0.2960 hc         1 3DZ       0.042200
     45 H22          7.1500    -1.3790     0.1480 hc         1 3DZ       0.042200
     46 H23          5.5010    -1.3620     1.9910 hc         1 3DZ       0.108700
     47 H24          5.6470    -3.1180     2.1380 hc         1 3DZ       0.108700
     48 H25          7.6670    -4.1350     3.0280 ha         1 3DZ       0.138000
     49 H26          7.3080     0.1060     2.6800 ha         1 3DZ       0.138000
     50 H27          9.2670     0.3930     4.1500 ha         1 3DZ       0.123000
     51 H28         10.4250    -1.5850     5.0600 ha         1 3DZ       0.120000
     52 H29          9.6260    -3.8490     4.4980 ha         1 3DZ       0.123000
     53 HBA3        -3.9780     1.3170    -2.1890 hn         1 3DZ       0.441800
     54 HAQ3         6.6780    -3.1150    -1.9510 hn         1 3DZ       0.431800
@<TRIPOS>BOND
     1    16    15 1
     2     5     6 1
     3     5     4 1
     4    18    15 1
     5    18    19 1
     6    18    20 1
     7    14    15 1
     8    14     4 1
     9    15    17 1
    10    23    27 ar
    11    23    22 ar
    12    27    26 ar
    13     6     7 ar
    14     6    13 ar
    15     7     8 ar
    16    13    10 ar
    17     8     9 ar
    18    10     9 ar
    19    10    11 1
    20     4     2 1
    21    11    12 1
    22    21    20 1
    23    21    22 1
    24    22    24 ar
    25    26    25 ar
    26     1     2 1
    27     2     3 1
    28    25    24 ar
    29     4    28 1
    30     5    29 1
    31     5    30 1
    32     7    31 1
    33     8    32 1
    34     9    33 1
    35    11    34 1
    36    11    35 1
    37    12    36 1
    38    12    37 1
    39    13    38 1
    40    14    39 1
    41    14    40 1
    42    18    41 1
    43    19    42 1
    44    19    43 1
    45    20    44 1
    46    20    45 1
    47    21    46 1
    48    21    47 1
    49    23    48 1
    50    24    49 1
    51    25    50 1
    52    26    51 1
    53    27    52 1
    54    53    12 1
    55    54    19 1
@<TRIPOS>SUBSTRUCTURE
     1 3DZ         1 TEMP              0 ****  ****    0 ROOT
