@<TRIPOS>MOLECULE
3E0
   35    37     1     0     0
SMALL
bcc


@<TRIPOS>ATOM
      1 CAP          0.0000     0.0000     0.0000 c3         1 3E0       0.085300
      2 CAQ          1.5310     0.0000     0.0000 c3         1 3E0       0.214900
      3 OAR          2.0030     0.0000     1.3490 os         1 3E0      -0.409600
      4 CAS          1.5500     1.1180     2.1180 c3         1 3E0       0.214900
      5 CAT          0.0190     1.1290     2.1390 c3         1 3E0       0.085300
      6 NAO         -0.4850     1.1610     0.7590 nh         1 3E0      -0.405300
      7 CAL         -1.8690     1.2270     0.7380 cc         1 3E0       0.559300
      8 NAK         -2.5850     2.1390     1.3180 nd         1 3E0      -0.563000
      9 SAM         -2.9280     0.0880    -0.0890 ss         1 3E0      -0.364300
     10 CAN         -4.3360     0.9940     0.4600 cc         1 3E0      -0.124400
     11 CAJ         -3.9080     2.0400     1.1880 cd         1 3E0       0.414800
     12 CAI         -4.8420     3.0120     1.8050 ca         1 3E0      -0.129500
     13 CAH         -5.8900     3.5460     1.0580 ca         1 3E0      -0.089000
     14 CAG         -6.7570     4.4520     1.6360 ca         1 3E0      -0.088000
     15 CAF         -6.5900     4.8320     2.9550 ca         1 3E0      -0.118000
     16 CAB         -5.5510     4.3080     3.7060 ca         1 3E0       0.081900
     17 FAA         -5.3970     4.6790     4.9960 f          1 3E0      -0.120900
     18 CAC         -4.6770     3.3930     3.1390 ca         1 3E0       0.120100
     19 OAD         -3.6570     2.8780     3.8750 os         1 3E0      -0.312900
     20 CAE         -3.9240     1.6780     4.6040 c3         1 3E0       0.250700
     21 H1          -0.3600     0.0600    -1.0200 h1         1 3E0       0.036700
     22 H2          -0.3600    -0.9100     0.4640 h1         1 3E0       0.036700
     23 H3           1.8910     0.8860    -0.5080 h1         1 3E0       0.017450
     24 H4           1.8910    -0.8860    -0.5080 h1         1 3E0       0.017450
     25 H5           1.9240     1.0340     3.1310 h1         1 3E0       0.017450
     26 H6           1.9110     2.0340     1.6680 h1         1 3E0       0.017450
     27 H7          -0.3280     2.0080     2.6700 h1         1 3E0       0.036700
     28 H8          -0.3420     0.2360     2.6340 h1         1 3E0       0.036700
     29 H9          -5.3690     0.7510     0.2460 h4         1 3E0       0.163000
     30 H10         -6.0240     3.2500     0.0250 ha         1 3E0       0.113000
     31 H11         -7.5720     4.8650     1.0540 ha         1 3E0       0.109000
     32 H12         -7.2740     5.5430     3.4020 ha         1 3E0       0.120000
     33 H13         -4.6650     1.0910     4.0740 h1         1 3E0      -0.006967
     34 H14         -3.0110     1.1040     4.7020 h1         1 3E0      -0.006967
     35 H15         -4.3000     1.9290     5.5880 h1         1 3E0      -0.006967
@<TRIPOS>BOND
     1     1     2 1   
     2     1     6 1   
     3     1    21 1   
     4     1    22 1   
     5     2     3 1   
     6     2    23 1   
     7     2    24 1   
     8     3     4 1   
     9     4     5 1   
    10     4    25 1   
    11     4    26 1   
    12     5     6 1   
    13     5    27 1   
    14     5    28 1   
    15     6     7 1   
    16     7     8 2   
    17     7     9 1   
    18     8    11 1   
    19     9    10 1   
    20    10    11 2   
    21    10    29 1   
    22    11    12 1   
    23    12    13 ar  
    24    12    18 ar  
    25    13    14 ar  
    26    13    30 1   
    27    14    15 ar  
    28    14    31 1   
    29    15    16 ar  
    30    15    32 1   
    31    16    17 1   
    32    16    18 ar  
    33    18    19 1   
    34    19    20 1   
    35    20    33 1   
    36    20    34 1   
    37    20    35 1   
@<TRIPOS>SUBSTRUCTURE
     1 3E0         1 TEMP              0 ****  ****    0 ROOT
