@<TRIPOS>MOLECULE
molecule
   35    37     1     0     0
SMALL
bcc


@<TRIPOS>ATOM
      1 CAP          0.0000     0.0000     0.0000 c3         1 3E0       0.121300
      2 CAQ          1.5310     0.0000     0.0000 c3         1 3E0       0.138400
      3 OAR          2.0030     0.0000     1.3490 os         1 3E0      -0.423600
      4 CAS          1.5500     1.1180     2.1180 c3         1 3E0       0.138400
      5 CAT          0.0190     1.1290     2.1390 c3         1 3E0       0.121300
      6 NAO         -0.4850     1.1610     0.7590 nh         1 3E0      -0.658300
      7 CAL         -1.8690     1.2270     0.7380 cc         1 3E0       0.672300
      8 NAK         -2.5850     2.1390     1.3180 nd         1 3E0      -0.678000
      9 SAM         -2.9280     0.0880    -0.0890 ss         1 3E0      -0.298300
     10 CAN         -4.3360     0.9940     0.4600 cc         1 3E0      -0.179400
     11 CAJ         -3.9080     2.0400     1.1880 cd         1 3E0       0.445800
     12 CAI         -4.8420     3.0120     1.8050 ca         1 3E0      -0.114500
     13 CAH         -5.8900     3.5460     1.0580 ca         1 3E0      -0.119000
     14 CAG         -6.7570     4.4520     1.6360 ca         1 3E0      -0.114000
     15 CAF         -6.5900     4.8320     2.9550 ca         1 3E0      -0.155000
     16 CAB         -5.5510     4.3080     3.7060 ca         1 3E0       0.112900
     17 FAA         -5.3970     4.6790     4.9960 f          1 3E0      -0.130900
     18 CAC         -4.6770     3.3930     3.1390 ca         1 3E0       0.102100
     19 OAD         -3.6570     2.8780     3.8750 os         1 3E0      -0.326900
     20 CAE         -3.9240     1.6780     4.6040 c3         1 3E0       0.134700
     21 H1          -0.3600     0.0600    -1.0200 h1         1 3E0       0.062200
     22 H2          -0.3600    -0.9100     0.4640 h1         1 3E0       0.062200
     23 H3           1.8910     0.8860    -0.5080 h1         1 3E0       0.060450
     24 H4           1.8910    -0.8860    -0.5080 h1         1 3E0       0.060450
     25 H5           1.9240     1.0340     3.1310 h1         1 3E0       0.060450
     26 H6           1.9110     2.0340     1.6680 h1         1 3E0       0.060450
     27 H7          -0.3280     2.0080     2.6700 h1         1 3E0       0.062200
     28 H8          -0.3420     0.2360     2.6340 h1         1 3E0       0.062200
     29 H9          -5.3690     0.7510     0.2460 h4         1 3E0       0.182000
     30 H10         -6.0240     3.2500     0.0250 ha         1 3E0       0.141000
     31 H11         -7.5720     4.8650     1.0540 ha         1 3E0       0.140000
     32 H12         -7.2740     5.5430     3.4020 ha         1 3E0       0.148000
     33 H13         -4.6650     1.0910     4.0740 h1         1 3E0       0.036700
     34 H14         -3.0110     1.1040     4.7020 h1         1 3E0       0.036700
     35 H15         -4.3000     1.9290     5.5880 h1         1 3E0       0.036700
@<TRIPOS>BOND
     1    17    16 1
     2    19    18 1
     3    19    20 1
     4     4     3 1
     5     4     5 1
     6     2     3 1
     7     2     1 1
     8    16    18 ar
     9    16    15 ar
    10    18    12 ar
    11    15    14 ar
    12    12    11 1
    13    12    13 ar
    14    10    11 2
    15    10     9 1
    16    11     8 1
    17    14    13 ar
    18     9     7 1
    19     8     7 2
    20     7     6 1
    21     5     6 1
    22     1     6 1
    23     1    21 1
    24     1    22 1
    25     2    23 1
    26     2    24 1
    27     4    25 1
    28     4    26 1
    29     5    27 1
    30     5    28 1
    31    10    29 1
    32    13    30 1
    33    14    31 1
    34    15    32 1
    35    20    33 1
    36    20    34 1
    37    20    35 1
@<TRIPOS>SUBSTRUCTURE
     1 3E0         1 TEMP              0 ****  ****    0 ROOT
