@<TRIPOS>MOLECULE
molecule
   38    39     1     0     0
SMALL
bcc


@<TRIPOS>ATOM
      1 C1           0.0000     0.0000     0.0000 ca         1 3E1       0.024100
      2 C2           1.3860     0.0000     0.0000 ca         1 3E1      -0.107500
      3 C3           2.0800     0.0000     1.2070 cp         1 3E1      -0.035500
      4 C4           1.3730     0.0010     2.4130 ca         1 3E1       0.140100
      5 C5          -0.0120     0.0010     2.4030 ca         1 3E1      -0.192000
      6 C6          -0.6960     0.0070     1.2020 ca         1 3E1      -0.110500
      7 N           -0.6990    -0.0010    -1.2140 ns         1 3E1      -0.478600
      8 C           -0.1890    -0.6390    -2.2860 c          1 3E1       0.655100
      9 CM          -0.8830    -0.5440    -3.6210 c3         1 3E1      -0.171100
     10 O4           2.0440     0.0010     3.5950 oh         1 3E1      -0.487100
     11 O11          0.8270    -1.2920    -2.1760 o          1 3E1      -0.592100
     12 C11          5.6500     1.0850     0.7160 ca         1 3E1       0.024100
     13 C21          4.2640     1.0900     0.7060 ca         1 3E1      -0.107500
     14 C31          3.5630    -0.0000     1.2130 cp         1 3E1      -0.035500
     15 C41          4.2610    -1.0960     1.7290 ca         1 3E1       0.140100
     16 C51          5.6470    -1.0920     1.7330 ca         1 3E1      -0.192000
     17 C61          6.3390    -0.0070     1.2300 ca         1 3E1      -0.110500
     18 C91          7.5410     2.5330     0.7430 c          1 3E1       0.655100
     19 CM1          8.3560     3.6350     0.1190 c3         1 3E1      -0.171100
     20 O41          3.5830    -2.1640     2.2250 oh         1 3E1      -0.487100
     21 O12          7.9470     1.9640     1.7340 o          1 3E1      -0.592100
     22 H1           1.9290    -0.0030    -0.9380 ha         1 3E1       0.149500
     23 H2          -0.5590     0.0040     3.3370 ha         1 3E1       0.136000
     24 H3          -1.7790     0.0070     1.1990 ha         1 3E1       0.145000
     25 H4          -1.5800     0.4680    -1.2840 hn         1 3E1       0.321000
     26 H5          -0.9690     0.4960    -3.9100 hc         1 3E1       0.062533
     27 H6          -0.3070    -1.0790    -4.3660 hc         1 3E1       0.062533
     28 H7          -1.8710    -0.9810    -3.5460 hc         1 3E1       0.062533
     29 H8           1.5770     0.5290     4.2220 ho         1 3E1       0.416000
     30 H9           3.7280     1.9420     0.3060 ha         1 3E1       0.149500
     31 H10          6.1880    -1.9410     2.1320 ha         1 3E1       0.136000
     32 H11          7.4220    -0.0080     1.2350 ha         1 3E1       0.145000
     33 H12          5.9350     2.7620    -0.4940 hn         1 3E1       0.321000
     34 H13          9.3200     3.6930     0.6090 hc         1 3E1       0.062533
     35 H14          7.8350     4.5780     0.2330 hc         1 3E1       0.062533
     36 H15          8.4980     3.4260    -0.9350 hc         1 3E1       0.062533
     37 H16          4.0670    -2.9540     2.0510 ho         1 3E1       0.416000
     38 N1           6.3580     2.1790     0.2010 ns         1 3E1      -0.478600
@<TRIPOS>BOND
     1    21    18 2
     2    19    18 1
     3    18    38 1
     4    17    16 ar
     5    17    12 ar
     6    38    12 1
     7    16    15 ar
     8    12    13 ar
     9    15    20 1
    10    15    14 ar
    11    10     4 1
    12    13    14 ar
    13    14     3 1
    14     4     3 ar
    15     4     5 ar
    16     3     2 ar
    17     5     6 ar
    18     2     1 ar
    19     6     1 ar
    20     1     7 1
    21     7     8 1
    22    11     8 2
    23     8     9 1
    24     2    22 1
    25     5    23 1
    26     6    24 1
    27     7    25 1
    28     9    26 1
    29     9    27 1
    30     9    28 1
    31    10    29 1
    32    13    30 1
    33    16    31 1
    34    17    32 1
    35    38    33 1
    36    19    34 1
    37    19    35 1
    38    19    36 1
    39    20    37 1
@<TRIPOS>SUBSTRUCTURE
     1 3E1         1 TEMP              0 ****  ****    0 ROOT
