@<TRIPOS>MOLECULE
molecule
   25    27     1     0     0
SMALL
bcc


@<TRIPOS>ATOM
      1 N1           0.0000     0.0000     0.0000 na         1 3E2      -0.082300
      2 C2          -0.8320    -0.0020     1.2060 c3         1 3E2      -0.080700
      3 C3          -1.1170     1.4180     1.6210 c          1 3E2       0.877600
      4 O4          -1.8660     1.6610     2.7080 o          1 3E2      -0.819300
      5 O5          -0.6720     2.3380     0.9760 o          1 3E2      -0.819300
      6 C8           1.3640     0.0000     0.0000 cc         1 3E2       0.494500
      7 N9           2.2920     0.0000     0.9460 nd         1 3E2      -0.595100
      8 C10          3.5780     0.0000     0.5870 cs         1 3E2       0.572800
      9 S11          4.7840    -0.0000     1.8020 s          1 3E2      -0.660400
     10 N12          3.9500     0.0020    -0.7030 ns         1 3E2      -0.186900
     11 N13          3.0920     0.0020    -1.6640 nc         1 3E2      -0.430300
     12 C14          1.8090     0.0010    -1.4010 cd         1 3E2       0.255600
     13 C15          0.5740     0.0010    -2.2060 ca         1 3E2      -0.170900
     14 C16          0.3270     0.0020    -3.5770 ca         1 3E2      -0.064000
     15 C17         -0.9710     0.0010    -4.0410 ca         1 3E2      -0.173000
     16 C18         -2.0290    -0.0000    -3.1460 ca         1 3E2      -0.094000
     17 C19         -1.7980    -0.0000    -1.7880 ca         1 3E2      -0.132000
     18 C21         -0.4950    -0.0040    -1.2990 ca         1 3E2       0.055800
     19 H1          -0.3090    -0.5140     2.0050 h1         1 3E2       0.067200
     20 H2          -1.7650    -0.5130     1.0000 h1         1 3E2       0.067200
     21 H5           1.1540     0.0020    -4.2770 ha         1 3E2       0.132000
     22 H6          -1.1640     0.0010    -5.1070 ha         1 3E2       0.124000
     23 H7          -3.0470    -0.0000    -3.5180 ha         1 3E2       0.128000
     24 H8          -2.6340    -0.0010    -1.0980 ha         1 3E2       0.152000
     25 H4           4.9250     0.0020    -0.9250 hn         1 3E2       0.381500
@<TRIPOS>BOND
     1    10    11 1   
     2    10     8 1   
     3    11    12 2   
     4     9     8 2   
     5     8     7 1   
     6    12    13 1   
     7    12     6 1   
     8    14    13 ar  
     9    14    15 ar  
    10    13    18 ar  
    11     7     6 2   
    12     6     1 1   
    13    15    16 ar  
    14     5     3 1   
    15    18     1 1   
    16    18    17 ar  
    17     1     2 1   
    18    16    17 ar  
    19     3     2 1   
    20     3     4 1   
    21     2    19 1   
    22     2    20 1   
    23    14    21 1   
    24    15    22 1   
    25    16    23 1   
    26    17    24 1   
    27    10    25 1   
@<TRIPOS>SUBSTRUCTURE
     1 3E2         1 TEMP              0 ****  ****    0 ROOT
