@<TRIPOS>MOLECULE
3E2
   25    27     1     0     0
SMALL
bcc


@<TRIPOS>ATOM
      1 N1           0.0000     0.0000     0.0000 na         1 3E2       0.427700
      2 C2          -0.8320    -0.0020     1.2060 c3         1 3E2      -0.189700
      3 C3          -1.1170     1.4180     1.6210 c          1 3E2       0.968600
      4 O4          -1.8660     1.6610     2.7080 o          1 3E2      -0.869300
      5 O5          -0.6720     2.3380     0.9760 o          1 3E2      -0.869300
      6 C8           1.3640     0.0000     0.0000 cc         1 3E2       0.259500
      7 N9           2.2920     0.0000     0.9460 nd         1 3E2      -0.467100
      8 C10          3.5780     0.0000     0.5870 cs         1 3E2       0.340800
      9 S11          4.7840    -0.0000     1.8020 s          1 3E2      -0.718400
     10 N12          3.9500     0.0020    -0.7030 ns         1 3E2       0.302100
     11 N13          3.0920     0.0020    -1.6640 nd         1 3E2      -0.503300
     12 C14          1.8090     0.0010    -1.4010 cc         1 3E2       0.242600
     13 C15          0.5740     0.0010    -2.2060 ca         1 3E2      -0.165900
     14 C16          0.3270     0.0020    -3.5770 ca         1 3E2      -0.036000
     15 C17         -0.9710     0.0010    -4.0410 ca         1 3E2      -0.143000
     16 C18         -2.0290    -0.0000    -3.1460 ca         1 3E2      -0.075000
     17 C19         -1.7980    -0.0000    -1.7880 ca         1 3E2      -0.087000
     18 C21         -0.4950    -0.0040    -1.2990 ca         1 3E2      -0.132200
     19 H1          -0.3090    -0.5140     2.0050 h1         1 3E2       0.044700
     20 H2          -1.7650    -0.5130     1.0000 h1         1 3E2       0.044700
     21 H5           1.1540     0.0020    -4.2770 ha         1 3E2       0.102000
     22 H6          -1.1640     0.0010    -5.1070 ha         1 3E2       0.098000
     23 H7          -3.0470    -0.0000    -3.5180 ha         1 3E2       0.098000
     24 H8          -2.6340    -0.0010    -1.0980 ha         1 3E2       0.123000
     25 H4           4.9250     0.0020    -0.9250 hn         1 3E2       0.205500
@<TRIPOS>BOND
     1     1     2 1   
     2     1     6 1   
     3     1    18 1   
     4     2     3 1   
     5     2    19 1   
     6     2    20 1   
     7     3     4 1   
     8     3     5 1   
     9     6     7 2   
    10     6    12 1   
    11     7     8 1   
    12     8     9 2   
    13     8    10 1   
    14    10    11 1   
    15    10    25 1   
    16    11    12 2   
    17    12    13 1   
    18    13    14 ar  
    19    13    18 ar  
    20    14    15 ar  
    21    14    21 1   
    22    15    16 ar  
    23    15    22 1   
    24    16    17 ar  
    25    16    23 1   
    26    17    18 ar  
    27    17    24 1   
@<TRIPOS>SUBSTRUCTURE
     1 3E2         1 TEMP              0 ****  ****    0 ROOT
