@<TRIPOS>MOLECULE
3E3
   44    44     1     0     0
SMALL
bcc


@<TRIPOS>ATOM
      1 N1           0.0000     0.0000     0.0000 nz         1 3E3       0.062400
      2 C7           1.4690     0.0000     0.0000 c3         1 3E3      -0.089500
      3 C8           1.9790     0.0000     1.4430 c3         1 3E3      -0.043400
      4 C9           1.5740     1.3080     2.1260 c3         1 3E3      -0.066700
      5 C11          1.9740     1.2580     3.6020 c3         1 3E3       0.008400
      6 C10          2.2850     2.4800     1.4450 c3         1 3E3       0.008400
      7 C12          1.9790    -1.2490    -0.7210 c3         1 3E3       0.106100
      8 O2           1.6220    -2.4120     0.0310 oh         1 3E3      -0.557800
      9 C13          3.4790    -1.1780    -0.8510 c          1 3E3       0.514100
     10 O1           4.1790    -1.9500    -0.2330 o          1 3E3      -0.564100
     11 N2           4.0410    -0.2550    -1.6570 ns         1 3E3      -0.008100
     12 C14          5.4320    -0.1090    -1.6890 ca         1 3E3      -0.143400
     13 C21          6.2530    -1.2090    -1.4700 ca         1 3E3      -0.091000
     14 C20          7.6250    -1.0620    -1.5030 ca         1 3E3      -0.082000
     15 C18          8.1830     0.1780    -1.7510 ca         1 3E3      -0.068300
     16 C19          9.6820     0.3360    -1.7860 c3         1 3E3       0.059200
     17 C17          7.3700     1.2750    -1.9690 ca         1 3E3      -0.082000
     18 C15          5.9970     1.1340    -1.9440 ca         1 3E3      -0.104300
     19 C16          5.1100     2.3280    -2.1880 c3         1 3E3       0.067200
     20 H30         -0.3340    -0.8140    -0.4780 hn         1 3E3       0.229467
     21 H31          1.8300     0.8840    -0.5110 hx         1 3E3       0.099700
     22 H32          3.0580    -0.0890     1.4450 hc         1 3E3       0.073200
     23 H33          1.5460    -0.8360     1.9790 hc         1 3E3       0.073200
     24 H34          0.5020     1.4400     2.0460 hc         1 3E3      -0.006300
     25 H35          1.6890     2.1840     4.0850 hc         1 3E3       0.017533
     26 H36          3.0460     1.1240     3.6820 hc         1 3E3       0.017533
     27 H37          1.4710     0.4290     4.0850 hc         1 3E3       0.017533
     28 H38          2.0490     3.3990     1.9690 hc         1 3E3       0.017533
     29 H39          1.9520     2.5560     0.4160 hc         1 3E3       0.017533
     30 H40          3.3550     2.3160     1.4670 hc         1 3E3       0.017533
     31 H41          1.5330    -1.3060    -1.7060 h1         1 3E3       0.014700
     32 H42          1.4050    -3.1140    -0.5600 ho         1 3E3       0.425000
     33 H43          3.4680     0.2810    -2.2780 hn         1 3E3       0.158500
     34 H44          5.8160    -2.1810    -1.2760 ha         1 3E3       0.147000
     35 H45          8.2650    -1.9190    -1.3330 ha         1 3E3       0.119000
     36 H46          9.9760     0.7850    -2.7270 hc         1 3E3       0.015033
     37 H47          9.9970     0.9720    -0.9680 hc         1 3E3       0.015033
     38 H48         10.1490    -0.6370    -1.6880 hc         1 3E3       0.015033
     39 H49          7.8110     2.2450    -2.1660 ha         1 3E3       0.118000
     40 H50          4.5700     2.5680    -1.2790 hc         1 3E3       0.004700
     41 H51          5.7180     3.1750    -2.4810 hc         1 3E3       0.004700
     42 H52          4.4040     2.0990    -2.9770 hc         1 3E3       0.004700
     43 H2          -0.3340     0.8210    -0.4660 hn         1 3E3       0.229467
     44 H13         -0.3340    -0.0070     0.9440 hn         1 3E3       0.229467
@<TRIPOS>BOND
     1     1     2 1   
     2     1    20 1   
     3     1    43 1   
     4     1    44 1   
     5     2     3 1   
     6     2     7 1   
     7     2    21 1   
     8     3     4 1   
     9     3    22 1   
    10     3    23 1   
    11     4     5 1   
    12     4     6 1   
    13     4    24 1   
    14     5    25 1   
    15     5    26 1   
    16     5    27 1   
    17     6    28 1   
    18     6    29 1   
    19     6    30 1   
    20     7     8 1   
    21     7     9 1   
    22     7    31 1   
    23     8    32 1   
    24     9    10 2   
    25     9    11 1   
    26    11    12 1   
    27    11    33 1   
    28    12    13 ar  
    29    12    18 ar  
    30    13    14 ar  
    31    13    34 1   
    32    14    15 ar  
    33    14    35 1   
    34    15    16 1   
    35    15    17 ar  
    36    16    36 1   
    37    16    37 1   
    38    16    38 1   
    39    17    18 ar  
    40    17    39 1   
    41    18    19 1   
    42    19    40 1   
    43    19    41 1   
    44    19    42 1   
@<TRIPOS>SUBSTRUCTURE
     1 3E3         1 TEMP              0 ****  ****    0 ROOT
