@<TRIPOS>MOLECULE
3E4
   75    80     1     0     0
SMALL
bcc


@<TRIPOS>ATOM
      1 C21          0.0000     0.0000     0.0000 c3         1 3E4      -0.032400
      2 C22          1.5310     0.0000     0.0000 c3         1 3E4      -0.021900
      3 C23          2.0400     0.0000     1.4420 c3         1 3E4      -0.088500
      4 N6           3.5090     0.0000     1.4420 nz         1 3E4       0.076400
      5 C24          1.5300    -1.2490     2.1640 c3         1 3E4      -0.021900
      6 C25         -0.0000    -1.2490     2.1640 c3         1 3E4      -0.032400
      7 C20         -0.5100    -1.2480     0.7210 c3         1 3E4       0.137500
      8 N4          -1.9750    -1.2490     0.7210 nu         1 3E4      -0.497900
      9 C12         -2.6670    -1.7550    -0.3650 ca         1 3E4       0.719900
     10 N2          -3.9910    -1.7470    -0.3470 nb         1 3E4      -0.657000
     11 N3          -1.9880    -2.2310    -1.3980 nb         1 3E4      -0.731000
     12 C15         -2.6130    -2.7240    -2.4560 ca         1 3E4       0.493200
     13 C13         -3.9950    -2.7400    -2.4790 ca         1 3E4      -0.402600
     14 C11         -4.6850    -2.2260    -1.3770 cp         1 3E4       0.552800
     15 C14         -6.1660    -2.2160    -1.3560 cp         1 3E4      -0.335800
     16 C16         -6.8960    -2.7240    -2.4320 ca         1 3E4      -0.011000
     17 C17         -8.2790    -2.6910    -2.3640 ca         1 3E4      -0.270300
     18 C18         -8.8920    -2.1620    -1.2430 ca         1 3E4       0.476200
     19 N5          -8.1820    -1.6870    -0.2380 nb         1 3E4      -0.643000
     20 C19         -6.8600    -1.7010    -0.2520 ca         1 3E4       0.652600
     21 O1          -6.1690    -1.2070     0.8050 os         1 3E4      -0.302400
     22 C4          -6.8790    -0.7160     1.8560 ca         1 3E4       0.067100
     23 C5          -7.2440     0.6100     1.8840 ca         1 3E4      -0.040300
     24 C26         -6.8530     1.5130     0.7430 c3         1 3E4       0.051200
     25 C6          -7.9690     1.1280     2.9530 ca         1 3E4      -0.188000
     26 C3          -7.2480    -1.5660     2.9180 ca         1 3E4       0.002000
     27 C10         -6.8950    -2.9260     2.9180 ca         1 3E4      -0.100000
     28 C9          -7.2670    -3.7190     3.9600 ca         1 3E4      -0.085000
     29 C8          -7.9940    -3.2000     5.0310 ca         1 3E4      -0.102000
     30 C7          -8.3520    -1.8870     5.0640 ca         1 3E4      -0.080000
     31 C2          -7.9850    -1.0400     4.0070 ca         1 3E4      -0.066000
     32 C1          -8.3400     0.3260     4.0090 ca         1 3E4       0.125600
     33 N1          -9.0670     0.8600     5.0740 nu         1 3E4      -0.395500
     34 S1         -10.1960     2.0390     4.7970 sy         1 3E4       1.037200
     35 O2         -10.9570     1.6110     3.6760 o          1 3E4      -0.563300
     36 O3         -10.7760     2.3450     6.0580 o          1 3E4      -0.563300
     37 C27         -9.3260     3.4850     4.2860 ca         1 3E4      -0.160500
     38 C32         -9.5280     4.0000     3.0200 ca         1 3E4       0.025000
     39 C31         -8.8460     5.1350     2.6190 ca         1 3E4      -0.133000
     40 C30         -7.9610     5.7510     3.4830 ca         1 3E4      -0.038000
     41 C29         -7.7580     5.2350     4.7500 ca         1 3E4      -0.130000
     42 C28         -8.4450     4.1050     5.1540 ca         1 3E4       0.044400
     43 Cl1         -8.1970     3.4600     6.7470 cl         1 3E4       0.005600
     44 H1          -0.3600    -0.0030    -1.0220 hc         1 3E4       0.044200
     45 H2          -0.3600     0.8840     0.5120 hc         1 3E4       0.044200
     46 H3           1.8900     0.8860    -0.5080 hc         1 3E4       0.033950
     47 H4           1.8910    -0.8860    -0.5090 hc         1 3E4       0.033950
     48 H5           1.6750     0.8830     1.9520 hx         1 3E4       0.094700
     49 H6           3.8430     0.7260     0.8400 hn         1 3E4       0.223800
     50 H7           3.8430    -0.8850     1.1150 hn         1 3E4       0.223800
     51 H9           1.8900    -1.2450     3.1860 hc         1 3E4       0.033950
     52 H10          1.8910    -2.1330     1.6520 hc         1 3E4       0.033950
     53 H11         -0.3600    -0.3630     2.6730 hc         1 3E4       0.044200
     54 H12         -0.3600    -2.1350     2.6720 hc         1 3E4       0.044200
     55 H13         -0.1450    -2.1310     0.2110 h1         1 3E4       0.062700
     56 H14         -2.4760    -0.8740     1.5030 hn         1 3E4       0.311800
     57 H15         -2.0470    -3.1130    -3.2950 h4         1 3E4      -0.016900
     58 H16         -4.5310    -3.1380    -3.3330 ha         1 3E4       0.137000
     59 H17         -6.3930    -3.1340    -3.3000 ha         1 3E4       0.115000
     60 H18         -8.8760    -3.0770    -3.1810 ha         1 3E4       0.124000
     61 H19         -9.9740    -2.1330    -1.1900 h4         1 3E4      -0.012900
     62 H20         -6.4140     2.4220     1.1360 hc         1 3E4       0.013033
     63 H21         -6.1310     1.0070     0.1120 hc         1 3E4       0.013033
     64 H22         -7.7320     1.7590     0.1590 hc         1 3E4       0.013033
     65 H23         -7.7090     2.1300     3.2750 ha         1 3E4       0.127000
     66 H24         -6.3310    -3.3430     2.0920 ha         1 3E4       0.114000
     67 H25         -6.9950    -4.7670     3.9580 ha         1 3E4       0.102000
     68 H26         -8.2780    -3.8520     5.8490 ha         1 3E4       0.105000
     69 H27         -8.9160    -1.4980     5.9030 ha         1 3E4       0.108000
     70 H28         -8.9190     0.5180     6.0030 hn         1 3E4       0.352800
     71 H29        -10.2220     3.5170     2.3430 ha         1 3E4       0.139000
     72 H30         -9.0050     5.5390     1.6270 ha         1 3E4       0.114000
     73 H31         -7.4250     6.6380     3.1670 ha         1 3E4       0.106000
     74 H32         -7.0660     5.7200     5.4280 ha         1 3E4       0.119000
     75 H63          3.8420     0.1540     2.3730 hn         1 3E4       0.223800
@<TRIPOS>BOND
     1     1     2 1   
     2     1     7 1   
     3     1    44 1   
     4     1    45 1   
     5     2     3 1   
     6     2    46 1   
     7     2    47 1   
     8     3     4 1   
     9     3     5 1   
    10     3    48 1   
    11     4    49 1   
    12     4    50 1   
    13     4    75 1   
    14     5     6 1   
    15     5    51 1   
    16     5    52 1   
    17     6     7 1   
    18     6    53 1   
    19     6    54 1   
    20     7     8 1   
    21     7    55 1   
    22     8     9 1   
    23     8    56 1   
    24     9    10 ar  
    25     9    11 ar  
    26    10    14 ar  
    27    11    12 ar  
    28    12    13 ar  
    29    12    57 1   
    30    13    14 ar  
    31    13    58 1   
    32    14    15 1   
    33    15    16 ar  
    34    15    20 ar  
    35    16    17 ar  
    36    16    59 1   
    37    17    18 ar  
    38    17    60 1   
    39    18    19 ar  
    40    18    61 1   
    41    19    20 ar  
    42    20    21 1   
    43    21    22 1   
    44    22    23 ar  
    45    22    26 ar  
    46    23    24 1   
    47    23    25 ar  
    48    24    62 1   
    49    24    63 1   
    50    24    64 1   
    51    25    32 ar  
    52    25    65 1   
    53    26    27 ar  
    54    26    31 ar  
    55    27    28 ar  
    56    27    66 1   
    57    28    29 ar  
    58    28    67 1   
    59    29    30 ar  
    60    29    68 1   
    61    30    31 ar  
    62    30    69 1   
    63    31    32 ar  
    64    32    33 1   
    65    33    34 1   
    66    33    70 1   
    67    34    35 2   
    68    34    36 2   
    69    34    37 1   
    70    37    38 ar  
    71    37    42 ar  
    72    38    39 ar  
    73    38    71 1   
    74    39    40 ar  
    75    39    72 1   
    76    40    41 ar  
    77    40    73 1   
    78    41    42 ar  
    79    41    74 1   
    80    42    43 1   
@<TRIPOS>SUBSTRUCTURE
     1 3E4         1 TEMP              0 ****  ****    0 ROOT
